

Initial grammar loaded:
start: t0
t0: t0 t0
    | "%"
    | "."
    | "_"
    | talphanums
talphanums: talphanum
    | talphanum talphanums
talphanum: "a"
    | "b"
    | "c"
    | "d"
    | "e"
    | "f"
    | "g"
    | "h"
    | "i"
    | "j"
    | "k"
    | "l"
    | "m"
    | "n"
    | "o"
    | "p"
    | "q"
    | "r"
    | "s"
    | "t"
    | "u"
    | "v"
    | "w"
    | "x"
    | "y"
    | "z"
    | "A"
    | "B"
    | "C"
    | "D"
    | "E"
    | "F"
    | "G"
    | "H"
    | "I"
    | "J"
    | "K"
    | "L"
    | "M"
    | "N"
    | "O"
    | "P"
    | "Q"
    | "R"
    | "S"
    | "T"
    | "U"
    | "V"
    | "W"
    | "X"
    | "Y"
    | "Z"
    | "0"
    | "1"
    | "2"
    | "3"
    | "4"
    | "5"
    | "6"
    | "7"
    | "8"
    | "9"
Precision set (size 1000):
Passed
 _8._.
Passed
 ..h5
Passed
 zx
Passed
 cM9
Passed
 %Zfe2Z
Passed
 sfSs
Passed
 VP7p
Passed
 _p2
Passed
 nABEk
Passed
 _Q
Passed
 C.
Passed
 lr
Passed
 yY%%%
Passed
 X%
Passed
 AaY
Passed
 _%9a
Passed
 J.
Passed
 .h.
Passed
 3b
Passed
 DAhDEa
Passed
 SV.
Passed
 X1Q
Passed
 0jZ4q
Passed
 G.
Passed
 yCb0
Passed
 %.882
Passed
 jY
Passed
 _%
Passed
 veW.
Passed
 ..
Passed
 Y
Passed
 Ya%
Passed
 .n7j_
Passed
 k%_C
Passed
 zJyV
Passed
 qPA
Passed
 mg
Passed
 7NP
Passed
 T
Passed
 Ek
Passed
 71
Passed
 T1
Passed
 %p.
Passed
 go
Passed
 PN24hRPIzOw8otM
Passed
 %K1kX.
Passed
 %_%..
Passed
 1C
Passed
 .2OJ5
Passed
 gD_%.%
Passed
 oT
Passed
 fxN
Passed
 sqz
Passed
 e9
Passed
 g
Passed
 Wh__
Passed
 2%..%
Passed
 %bQLg
Passed
 _.%
Passed
 a3gf
Passed
 AA0
Passed
 6KHj_%
Passed
 q0fU
Passed
 7NEO
Passed
 Fw
Passed
 cm1b
Passed
 8Ko
Passed
 okp
Passed
 KN
Passed
 5%_
Passed
 Jb
Passed
 .e
Passed
 UGvN%
Passed
 gqT29
Passed
 l3W
Passed
 t%
Passed
 IM
Passed
 gM
Passed
 0L
Passed
 Zu
Passed
 Pzj
Passed
 %e
Passed
 ra
Passed
 V_1
Passed
 Y_%_%
Passed
 HPQ.
Passed
 M%Se
Passed
 w%
Passed
 VL
Passed
 zj
Passed
 %TPK
Passed
 fw4
Passed
 qpA_
Passed
 _.%_.
Passed
 A
Passed
 hq.
Passed
 RMD
Passed
 h.%
Passed
 3_
Passed
 A_
Passed
 z
Passed
 VY..
Passed
 ivC
Passed
 ft
Passed
 C0o
Passed
 O.
Passed
 .%__.
Passed
 %%Q
Passed
 3R
Passed
 _ao%
Passed
 0h
Passed
 dD
Passed
 V
Passed
 s1
Passed
 mk
Passed
 _.W
Passed
 ._%.4P50
Passed
 _%._
Passed
 PpOA.t
Passed
 _.oG8j_
Passed
 To
Passed
 .a
Passed
 __%.._F
Passed
 %gN%._
Passed
 V3ta
Passed
 %___h
Passed
 .zt
Passed
 _nds.fu
Passed
 5H
Passed
 Ojj_
Passed
 %_.%G%_
Passed
 oaZ.
Passed
 Bx_
Passed
 TV
Passed
 4.%
Passed
 qy
Passed
 tIY
Passed
 nX9WOXac
Passed
 GlL
Passed
 s
Passed
 TzQ2eo
Passed
 Cdf
Passed
 LZ.
Passed
 O%_
Passed
 oqZ
Passed
 4%
Passed
 tsv
Passed
 I
Passed
 x%%
Passed
 _.AFdF
Passed
 hcU0
Passed
 46P
Passed
 __Y
Passed
 p39
Passed
 aWpVG
Passed
 a
Passed
 zd
Passed
 ._
Passed
 d9
Passed
 i1%
Passed
 iWH
Passed
 7pd
Passed
 ok
Passed
 Q_l
Passed
 .zY7U
Passed
 SWOP
Passed
 Im
Passed
 zT
Passed
 %.e
Passed
 GU
Passed
 6A
Passed
 y4
Passed
 17
Passed
 JMAM_
Passed
 qkvU
Passed
 %%.
Passed
 O
Passed
 P
Passed
 qW
Passed
 lOL
Passed
 _AwEtcbG
Passed
 .xy
Passed
 _F5UCSD_
Passed
 %LDzVTi
Passed
 7J
Passed
 B
Passed
 _mt
Passed
 eA
Passed
 H%
Passed
 3
Passed
 .%%
Passed
 Ya
Passed
 5gl
Passed
 KL0hxk.hg_
Passed
 g4OC
Passed
 .%%._
Passed
 8x.%
Passed
 Jc
Passed
 Pps
Passed
 LFTnrc
Passed
 r.
Passed
 UOqH
Passed
 wr
Passed
 _Aw%
Passed
 PR
Passed
 q9
Passed
 Kre
Passed
 .3y0Y
Passed
 _T7_
Passed
 .%%.
Passed
 Lcj
Passed
 eWc
Passed
 Y_
Passed
 .
Passed
 fKv
Passed
 tAd.
Passed
 5d_
Passed
 g2
Passed
 .._
Passed
 jWxekP
Passed
 TbjK
Passed
 _yl
Passed
 RlZ..%
Passed
 oI%
Passed
 WLPBN4
Passed
 .%%%_
Passed
 .K
Passed
 %.._
Passed
 ovrFS
Passed
 %%o
Passed
 %FCeK1VriDRpVT
Passed
 %2.
Passed
 _hvE
Passed
 ej
Passed
 ChgFyrmF%
Passed
 %_
Passed
 0D%
Passed
 ._._6p
Passed
 qrs
Passed
 A.%
Passed
 X%__
Passed
 bVN%
Passed
 %_.
Passed
 %p9
Passed
 b.
Passed
 %N__
Passed
 I9Pf
Passed
 KC
Passed
 %4Tf
Passed
 c3Xk
Passed
 _e%
Passed
 .WX6
Passed
 9g9
Passed
 q46
Passed
 _..
Passed
 Hz
Passed
 7d
Passed
 _X
Passed
 Mg
Passed
 _M9k.
Passed
 %j
Passed
 0Kcv
Passed
 f
Passed
 r2
Passed
 e7%
Passed
 NYo
Passed
 E97
Passed
 H6
Passed
 V0
Passed
 Vo
Passed
 NOp
Passed
 jt
Passed
 H
Passed
 _oc_
Passed
 Gvb
Passed
 MT
Passed
 eO9f
Passed
 bd
Passed
 e%
Passed
 RKAb
Passed
 v
Passed
 .PjgiyJ29B.
Passed
 cC
Passed
 6
Passed
 mU
Passed
 AN
Passed
 .%y
Passed
 wL
Passed
 2o
Passed
 9_
Passed
 j0
Passed
 sdR
Passed
 oJ
Passed
 Uh_
Passed
 NT.
Passed
 o7c
Passed
 TVm
Passed
 _
Passed
 k_
Passed
 FAt
Passed
 _.
Passed
 rqc_
Passed
 .._CV
Passed
 %%
Passed
 6A.%
Passed
 2T
Passed
 %2K
Passed
 %%b%z
Passed
 _x
Passed
 yQnST
Passed
 vti08wzSRm
Passed
 9b
Passed
 .5L
Passed
 lw
Passed
 juOw_
Passed
 C6
Passed
 jha
Passed
 UN_
Passed
 NhSz.%
Passed
 vJ.
Passed
 7nu
Passed
 zb
Passed
 LBC_
Passed
 _o_
Passed
 Wu.%Ab%
Passed
 b
Passed
 kC_
Passed
 0_.
Passed
 .N
Passed
 %4
Passed
 0
Passed
 9TYSH
Passed
 mf
Passed
 p
Passed
 hvv...
Passed
 mGJ
Passed
 .G
Passed
 _..%
Passed
 %r
Passed
 Wd
Passed
 H5z
Passed
 A9Z
Passed
 x4gPX_.
Passed
 0.
Passed
 NnB
Passed
 _at
Passed
 ED
Passed
 Fu
Passed
 p42lUUNVLOjM
Passed
 m3.
Passed
 R.
Passed
 odZ
Passed
 wHv_
Passed
 mOcmdd
Passed
 Jd.7s%
Passed
 _q
Passed
 O_
Passed
 ydE%
Passed
 Q
Passed
 %ZDrxe_
Passed
 Vv2j4P
Passed
 %_%_
Passed
 KwzVGoU
Passed
 N_
Passed
 w
Passed
 kB
Passed
 %V
Passed
 3ROw
Passed
 .2.
Passed
 KU
Passed
 Q9
Passed
 fxL
Passed
 _D7
Passed
 w.%
Passed
 bQ
Passed
 GcX0K
Passed
 ..8y
Passed
 %x
Passed
 1zV4N
Passed
 sN
Passed
 h
Passed
 G
Passed
 %..%..
Passed
 %oF
Passed
 .TJ
Passed
 02M2
Passed
 iA5V_
Passed
 rX
Passed
 mwSAJ
Passed
 ..%j
Passed
 adw.
Passed
 KGd
Passed
 0uI0
Passed
 t
Passed
 K8A
Passed
 S
Passed
 lg
Passed
 ..._%%E
Passed
 s.
Passed
 g_
Passed
 6yUMw
Passed
 pI
Passed
 We
Passed
 kkE
Passed
 mYhN
Passed
 tktx7
Passed
 J8wa
Passed
 ._..d2
Passed
 7R
Passed
 iE
Passed
 wz
Passed
 sY_.
Passed
 %k
Passed
 Nu
Passed
 .._%
Passed
 Sw%
Passed
 I3689
Passed
 4S
Passed
 pw8G9AR
Passed
 s%.%
Passed
 dd.
Passed
 cTwNCIf
Passed
 QW
Passed
 rt
Passed
 eKRcwr
Passed
 %U_
Passed
 mQS
Passed
 ._._.
Passed
 xJs
Passed
 T02
Passed
 oxsD%
Passed
 .L
Passed
 Tq
Passed
 wzC
Passed
 .U
Passed
 WEP
Passed
 %.%
Passed
 4D
Passed
 G%
Passed
 XNz%
Passed
 ..5
Passed
 _Ug
Passed
 _%%iQL
Passed
 .Re
Passed
 joGm4
Passed
 f%_.
Passed
 WcY
Passed
 kp7Vgva
Passed
 xZ
Passed
 GHmS%
Passed
 M..%%
Passed
 PSn2gN
Passed
 b%
Passed
 TY
Passed
 %pf_
Passed
 8E
Passed
 _3uoFH
Passed
 %f%%%_..
Passed
 74Fk
Passed
 MQW
Passed
 yzL
Passed
 %HBTe.TjM
Passed
 wK
Passed
 d
Passed
 .v
Passed
 _%%..
Passed
 %L
Passed
 %J
Passed
 G5
Passed
 ._.%%..
Passed
 koq
Passed
 76
Passed
 g62z
Passed
 39I%_
Passed
 S_
Passed
 .1
Passed
 z2b
Passed
 vvN
Passed
 F
Passed
 8P
Passed
 w7w
Passed
 .%.
Passed
 _IL6e6Z5z3
Passed
 pRv_
Passed
 %8
Passed
 295b
Passed
 WBo1_
Passed
 Vr
Passed
 7wK
Passed
 ey
Passed
 I%._
Passed
 Hu..
Passed
 8u_
Passed
 __.
Passed
 .u
Passed
 %D
Passed
 m%
Passed
 3.
Passed
 X8pjQ
Passed
 __%
Passed
 jq%
Passed
 fkB
Passed
 3N.
Passed
 ..9p.g
Passed
 Hh
Passed
 .PWp
Passed
 iJ_
Passed
 Ug
Passed
 43jJ
Passed
 zL
Passed
 R8i
Passed
 awv
Passed
 DEf
Passed
 qL
Passed
 _p.
Passed
 Go
Passed
 k
Passed
 VG
Passed
 GHB
Passed
 34c
Passed
 1%
Passed
 6j
Passed
 E
Passed
 cS
Passed
 T0
Passed
 hm1U
Passed
 _%b
Passed
 9xX
Passed
 va
Passed
 kDq
Passed
 J
Passed
 D
Passed
 UlQ
Passed
 _36
Passed
 .J
Passed
 %%_.
Passed
 .%.R
Passed
 MC
Passed
 KBT
Passed
 TB
Passed
 %
Passed
 __S
Passed
 4Y
Passed
 sh1M5KP
Passed
 bC
Passed
 %_if_
Passed
 ._.%
Passed
 5e..._
Passed
 jVd
Passed
 N
Passed
 6pj
Passed
 3F%_H8j
Passed
 .%_
Passed
 EKb3
Passed
 _.c6
Passed
 _9opEjC.
Passed
 %5b8f%
Passed
 Osp
Passed
 x
Passed
 Tbhw7
Passed
 aoKslIP
Passed
 .lL4v3fT
Passed
 %Y.
Passed
 uS
Passed
 R2Y
Passed
 cocIX6
Passed
 27P
Passed
 5
Passed
 lZP3.
Passed
 %B....
Passed
 AkR
Passed
 xy
Passed
 qh
Passed
 %..%.
Passed
 L
Passed
 _%%
Passed
 .Ykk
Passed
 j5M
Passed
 iU
Passed
 q
Passed
 Pc
Passed
 %.%.%
Passed
 %R
Passed
 1ZB
Passed
 FC
Passed
 xI
Passed
 ..__%%
Passed
 us
Passed
 r8
Passed
 hQa
Passed
 qP
Passed
 iW
Passed
 .__._R_.
Passed
 r._ux
Passed
 _.%%%
Passed
 1mV
Passed
 YO
Passed
 qV
Passed
 W
Passed
 4C%
Passed
 Vp%_%
Passed
 Yb1
Passed
 9CguT
Passed
 CS_q
Passed
 grZ.
Passed
 5X
Passed
 c
Passed
 2h
Passed
 fGSA2d5
Passed
 S_%%P
Passed
 .%.%%%_
Passed
 hb
Passed
 E_
Passed
 Wh
Passed
 _%k
Passed
 _..%_
Passed
 oXupsk3
Passed
 %u
Passed
 wxQ
Passed
 _LYgR
Passed
 .%d_
Passed
 %269..%
Passed
 IMLoc2._..%_%
Passed
 2
Passed
 lR
Passed
 q8
Passed
 ni
Passed
 k.
Passed
 %luq
Passed
 EK
Passed
 vkW
Passed
 p_
Passed
 BZ5NnR
Passed
 _O
Passed
 gA
Passed
 4x
Passed
 _._
Passed
 Sp
Passed
 Ls
Passed
 l
Passed
 4W
Passed
 y
Passed
 D3Y
Passed
 _8
Passed
 q.
Passed
 j
Passed
 cafSmDFq
Passed
 fFz
Passed
 _.Y_
Passed
 oz
Passed
 Xe
Passed
 Q1
Passed
 xZd_
Passed
 %.Y_
Passed
 0pTmp
Passed
 Nf
Passed
 irS
Passed
 .%WM
Passed
 _m
Passed
 5LSL
Passed
 Qt
Passed
 __JHJLZ
Passed
 %PGf_.
Passed
 .x
Passed
 MX
Passed
 ._.YTJk
Passed
 _%%_
Passed
 %_i
Passed
 ZOg
Passed
 %%_%
Passed
 FCKfg
Passed
 sd
Passed
 0oN%
Passed
 .R0TUq
Passed
 5RTy
Passed
 abD
Passed
 Q.
Passed
 38
Passed
 pfgg1
Passed
 roQ%%
Passed
 __
Passed
 .7Y2
Passed
 aK
Passed
 _KTH
Passed
 6W
Passed
 8
Passed
 _6
Passed
 zmwED
Passed
 .n.
Passed
 .c
Passed
 ak
Passed
 Rn
Passed
 BC
Passed
 Pl
Passed
 G7xnX
Passed
 Cf%y
Passed
 PF
Passed
 us%_
Passed
 Ygv
Passed
 %.H1Zz.QKK1O
Passed
 u
Passed
 v0
Passed
 uC4
Passed
 bUsp
Passed
 nT
Passed
 .%_%
Passed
 4a
Passed
 .v%_
Passed
 XnN
Passed
 w3.
Passed
 8z%
Passed
 .WcrM4U%.AB
Passed
 _k
Passed
 %RaCz
Passed
 7pr
Passed
 H5
Passed
 PXPx
Passed
 _.%.
Passed
 %.__.
Passed
 nWPFv
Passed
 %_s
Passed
 _2lr
Passed
 aj
Passed
 kvZ8aHJc7D
Passed
 _%.
Passed
 o
Passed
 _h
Passed
 NwJKe
Passed
 8k
Passed
 eQ
Passed
 sR
Passed
 _K%
Passed
 7_..%.L
Passed
 U
Passed
 A3
Passed
 FZHCz757n
Passed
 r
Passed
 Ef
Passed
 Ja
Passed
 %t
Passed
 _wdm
Passed
 jO4R1FIa
Passed
 ry
Passed
 ST
Passed
 Vc%
Passed
 n
Passed
 E1hhBt.
Passed
 .._y
Passed
 KNgF
Passed
 V4
Passed
 yczm
Passed
 %_%%_
Passed
 Zao
Passed
 vT
Passed
 G_
Passed
 8a2
Passed
 La4NMQ_
Passed
 %_._.
Passed
 %%%4aA
Passed
 1Ve
Passed
 g%.
Passed
 %%_
Passed
 bq
Passed
 Cyu9g.__
Passed
 vMjlU
Passed
 ZDI3wu
Passed
 z%
Passed
 w3
Passed
 %M
Passed
 K
Passed
 pm
Passed
 nnfI
Passed
 5Xbr
Passed
 XpY
Passed
 %_%%%%%%
Passed
 xe
Passed
 .41
Passed
 9
Passed
 R
Passed
 ..%_
Passed
 rj
Passed
 ab
Passed
 Q6F
Passed
 80
Passed
 SL_%
Passed
 Y.20Xm
Passed
 PT
Passed
 jj
Passed
 .sKOwGb.
Passed
 pJ
Passed
 Se
Passed
 %__
Passed
 YS%w3_
Passed
 .X
Passed
 L0
Passed
 %o%
Passed
 %9W.
Passed
 Vh
Passed
 _z
Passed
 _%Z
Passed
 Irb
Passed
 pC
Passed
 %%_al
Passed
 m
Passed
 w%_
Passed
 _N
Passed
 j4
Passed
 q%
Passed
 vrf
Passed
 0v
Passed
 %_zeg%
Passed
 Tnsl
Passed
 rUQ
Passed
 c7u_
Passed
 th
Passed
 m...__I
Passed
 0I
Passed
 nk2
Passed
 yO
Passed
 X
Passed
 Jo
Passed
 .hh
Passed
 .s_
Passed
 cR
Passed
 .%_%.
Passed
 %..
Passed
 _%._.
Passed
 ._V%.
Passed
 %uMzm
Passed
 Bfs
Passed
 N1.%..
Passed
 I6J
Passed
 _U9f
Passed
 Syc
Passed
 d2
Passed
 uFhMqUyF
Passed
 bPD3
Passed
 g7
Passed
 ._.
Passed
 wqkU
Passed
 Ir
Passed
 5togzh
Passed
 8l
Passed
 c._
Passed
 ___
Passed
 _...
Passed
 bA92aq
Passed
 8.
Passed
 bK3.
Passed
 E4wXl
Passed
 uu7x
Passed
 3y
Passed
 SkO
Passed
 3k%
Passed
 gB
Passed
 imO
Passed
 %%%
Passed
 tc
Passed
 GZ
Passed
 5gC
Passed
 Ef%
Passed
 6qt6Y
Passed
 _Nls0
Passed
 uX0C
Passed
 Byh_
Passed
 i
Passed
 M%
Passed
 2BCAq5
Passed
 e
Passed
 L1x
Passed
 9q
Passed
 A4
Passed
 .___
Passed
 _g1O.
Passed
 E2
Passed
 %M%
Passed
 PX
Passed
 K51
Passed
 Ss
Passed
 12E
Passed
 74y1vW
Passed
 LDuO
Passed
 ..RWynK
Passed
 S.
Passed
 .TXr
Passed
 %_%%
Passed
 S_XC
Passed
 vG_
Passed
 _P
Passed
 VY
Passed
 pE
Passed
 I6
Passed
 Ig
Passed
 %%_%.CYB
Passed
 .crUw
Passed
 hOR4.__
Passed
 C
Passed
 bT0RPM
Passed
 0_
Passed
 %f_
Passed
 wXPoW
Passed
 ._.%.
Passed
 %.%UJ8S
Passed
 IN
Passed
 EvF
Passed
 m.
Passed
 %qf
Passed
 %._
Passed
 ef
Passed
 5s
Passed
 %.%%
Passed
 ooe
Passed
 %.
Passed
 5PQsz
Passed
 Z
Passed
 rP0
Passed
 ElI
Passed
 Xo
Passed
 1lEnIS8h
Passed
 1H2%LCQfNF
Passed
 _9
Passed
 .__
Passed
 fu
Passed
 xA
Passed
 64
Passed
 08w
Passed
 4
Passed
 fl
Passed
 rg
Passed
 X3W
Passed
 EigAd
Passed
 Qgy
Passed
 nBo
Passed
 _KvG1i.%%
Passed
 F.
Passed
 Zra
Passed
 0X
Passed
 DV
Passed
 6t._w
Passed
 tOBUT%_
Passed
 cp
Passed
 Kfp
Passed
 _%_
Passed
 uWe1Z
Passed
 %Nq
Passed
 C4
Passed
 .ExEt
Passed
 LV8w
Passed
 QF
Passed
 7YVWwv_
Passed
 %%..__
Passed
 __i_
Passed
 j%%
Passed
 IPYTj
Passed
 T%h
Passed
 H1516rVXBVm
Passed
 0b
Passed
 .%%_
Passed
 4TB
Passed
 91E
Passed
 W7
Passed
 Sk
Passed
 E8
Passed
 fhx
Passed
 t.
Passed
 7
Passed
 aw
Passed
 kYA_
Passed
 .%.G
Passed
 5GCK
Passed
 .bv
Passed
 Hw
Passed
 ZU
Passed
 3H
Passed
 %_.i
Passed
 ...
Passed
 bo
Passed
 xg%
Passed
 t77p
Passed
 4Ins
Passed
 gSj
Passed
 mx
Passed
 _.qgwx6S
Passed
 k_%
Passed
 tGG
Passed
 ..%
Passed
 .%_u
Passed
 O5.R
Passed
 M
Passed
 ZIR
Passed
 6H68sMV
Passed
 .t
Passed
 _.%%
Passed
 .D
Passed
 yLxf
Passed
 _.%.._
Passed
 .%
Passed
 Rlztk
Passed
 1
Passed
 ssbf
Recall set (size 1000):
    %28%3A
    _o1%3F
    W
    %7D%25%5D
    f6%5B
    %5C%2C%7C%3B
    %5D2
    %5E%7DG
    %7B%3A
    %281LF%28
    /  <----- FAILURE
    %278%3D
    %60W%7D1
    %2B.%3C
    2%3C
    T%24
    %2A%23
    6%3B%3D%60Dd%21
    15
    %40%28
    %5Bx
    %5E6y
    %3C%7C%60
    %24
    %40P
    g7xI
    1%28
    gq
    N5F%25%3F
    Tn%25%5C%27%26%2B
    8p%23
    %5Ek%3A
    4A
    %3Dc%60
    Vv
    %3C%3B
    %5E%23X
    M1P%23%40%25
    %25c
    %5BD%3E
    %3Bq
    I6.
    2X%3D
    G%2C%3F
    %40%2A
    %2C%24
    %3D%40T%7B%5D
    Sb%40SE
    We
    %22n-  <----- FAILURE
    %5E%5D
    %7C
    7y
    o.-t  <----- FAILURE
    u3%5C
    k%5B7L
    %3D%5E%5B
    %2A44
    %2Cna%3E
    %23X%403%29
    %40T
    Xo
    D%2A%26%27C3%28
    %7DTPe
    o%5DG_
    %28%7C
    %3F%3B%3D
    %400%2C/  <----- FAILURE
    U%25O
    l_
    C%27yk
    /W  <----- FAILURE
    %5B0~  <----- FAILURE
    %3AD%2A
    X%21
    %5Cb
    %3E
    %5EO
    2Rj%60
    v
    GHt
    h%24
    j%24gr
    %7DC%22u
    %3CS
    %3B-  <----- FAILURE
    r
    %3E%60I
    t
    p%5D
    o%5E%2C
    %3A%22%5D
    DY%25M9%3B
    i
    -%274  <----- FAILURE
    %22z
    6%3A%2C
    V
    n
    %3F
    %21%23
    %7B3C%27
    %2Ba
    %29Z
    %3E%7CkK
    %3BRZ
    /%28  <----- FAILURE
    %2Av
    %28e9
    yw
    %3E%22H
    %26o.
    m%5E
    %28%2C-J  <----- FAILURE
    2v%23%5B
    %5D%25
    n%23
    lP%25
    h%22O
    p
    t%5C%2B%5B
    %3D%5C6
    %5B
    %3Db
    3
    %3F%29p%7B%26
    rm
    -w  <----- FAILURE
    %3Ds
    v%3F%7D
    %3DbX
    %3C%60%26%5D%3C
    b%3C%27hhg
    a%3E
    b%60%5E
    0%2C%27
    %40%25%3E
    G~%3Cb  <----- FAILURE
    M.Qw2
    %2Ay
    I%21
    u%5E
    A%5EP
    CZ
    w%2A
    %29NSb
    %5Cr%29
    a
    _%5D
    x%7B
    PH_
    %3BGNuO%3D4
    o
    %3C%3A%21%22
    8%27
    %3C%26aI%24
    f%7D
    %27t%2A%5D
    _%3A
    T%21
    Ag%3E
    %40%3C%2355
    FJh
    lP
    4%3Aq%7D
    %3B%7B%3E%29%3Eu
    X%40
    %7CF
    o%2C%7C
    pC
    cF
    %40%27
    %26.i%7D
    %3A%5C
    %40G
    %5EN%5B%3D
    r/%27  <----- FAILURE
    no%3A%29%24
    hT%2C8s
    r4
    Aq%7B
    %5C%3E%29%3D%5D%2A
    d
    %23%3A
    %29o%3A
    %25%21%27
    7%28
    t%26%3A
    %7D%3D%3BU
    %29%3B%3E%7C%5D%29E
    wM
    1u%40qd%2B%2CK
    E%7B
    mv-  <----- FAILURE
    %7B%7B%2C
    u
    A%25
    G34
    eyZ%29
    Ty
    K
    %2A%23S%3E
    I%26%5B
    0%2A%28
    %3C-RH  <----- FAILURE
    %25
    q%40M~W9  <----- FAILURE
    %2C5G
    8r
    %7B
    VvtF
    U%5C
    oOe5
    %60K%28
    kf
    X
    8ga%3E
    %3F%3F
    W%3CC..%3C
    %24Z%25t
    jKe7%25
    %3Eh
    tpO
    /%3Bh  <----- FAILURE
    %21%3E%5D
    %3A7
    h%2B
    %2C%3D
    K%2C
    c%60HOk%7B
    %5C%7BK%5C
    %2C
    %22%26j
    %28%27
    %3CNA
    g
    2oP%21
    6%2B%21
    %7Bga
    w5
    1%7C%40
    xj%28B1d
    2%23
    aO
    L
    %3CwV
    -%7B  <----- FAILURE
    ju%21
    N%24%5D
    v%2A%3C
    %5DJ%29
    l
    %3B
    fBx
    %3A%60
    %3F%28
    G%60%7C
    %27jq%3B
    %28MqE
    gL
    hZ%5C_2Z
    t%24
    %5E
    gj
    %22%23
    E%25
    %27z
    2W
    %5B%7D0U%5Cd
    LC
    %7C%5C
    Kt
    %2Bv8%2C%3E
    %5C%2B
    _u%5E
    %7D%7C
    %2B~M  <----- FAILURE
    4K
    %60
    X%3A%29%21
    3L
    Yz%5C
    %5DJ
    %2B%5Bm
    jA
    fD
    N%7Cksmtm2%28%5D
    %26%22
    u%26%23
    Z~  <----- FAILURE
    5
    %21%5D
    %22dn%5E
    %25%29%28%25%24Ydj
    %5EeI%7D
    %3ErM%60A
    %22.
    %3D%22
    y%23
    %25/  <----- FAILURE
    Ed
    %26%60
    0jhS
    s
    %26%5D%26%22%3B
    C%26
    %3Ed
    %21SC
    %21%27%27
    %3CB%2CuB
    %27G%7C
    %5CG
    bg
    %27%29%5D%5B%3E
    C%2CWB
    %29%29
    xz%3D
    aR
    ~9  <----- FAILURE
    oVN
    %25_P9OGV%26%21%27
    %5D%5C4%3D%2BL%28%5D
    %2CM%3B
    %262aN
    %28s%3B
    %24UV
    J%3A
    %5DQ
    1Z~%25%3E%24  <----- FAILURE
    %25%27V
    Q%40
    qA%3C
    %3EK%22%23
    %3E%5E%21
    g%3A
    aMH
    %5D%3E
    %60%5C
    y%28
    %7B-8%27  <----- FAILURE
    h%241
    Vk
    -s  <----- FAILURE
    %3B%7C
    c%2C
    %23%3E%21
    %26lK
    K2
    0%60%2A
    F%5B
    8%3Ba
    Um%5D
    %24j
    t%60
    %28p
    Oe
    %2B%21
    %7Da
    puH%7D
    %28g%40%3A
    %7By
    %3C%5B
    4p
    B%3E
    q%28%3B
    F
    D%28
    %60%3E
    %2Be
    s%7DG
    %3E%3E%5Co
    %25%21
    %2B28G%21%5D
    %3F%7B
    7Er
    %2Cx
    %2A%3Bn
    %22%2B
    %2B%5D
    LG
    n%3E%7D%21%23%21JR%2B
    %2A%7Dd
    D%3F
    %25%3CP%27%5Cf%29
    %23-P  <----- FAILURE
    %7C%3D
    J
    %5C3tb%23%2A
    %5B.f
    %3AgI
    Am
    %23%27
    vs
    %7C%5B9
    6U%5D%27
    %3C%5D%3EQ
    NpB
    _
    %248
    .
    8
    m.%27
    %297
    0
    w
    7K
    G%26%23
    %3D%3C%24%29%7D
    %7C%3B
    uPQ
    6%5B%3E
    %5C%7B
    %3C%25
    %29Y%26
    %27q
    %2B
    %7B%26
    %5DE%24%5C
    q%2A%244
    %22/  <----- FAILURE
    j
    s%28S
    NBp
    G
    7Do
    %5CO
    %21ZQ%5B
    %29C
    %2Bb
    %7D1%40%29
    %3C%24
    %284
    Z
    %3Al
    %29%23/  <----- FAILURE
    %21%280
    %5C%29%3F
    v%27
    P1
    M/%3F%5Ep%3E%29Q  <----- FAILURE
    M
    cL%2AU
    .%3F
    %5Cd
    %2AI%21
    _%3C
    W%24
    5B%26
    %26F
    vu
    CEV%3B
    2%3D%3D%3A%7B_Q
    E
    %24%3B
    %3DC
    %2C%3C
    7%3Fu%3F
    9
    %7D%29
    %7C6%27%7DC5
    NDl
    %3B%23
    e%40%22I
    YF
    %21%3E
    %2Aal
    T
    %23l%3Fb
    %287
    ~4q%23  <----- FAILURE
    -%3C  <----- FAILURE
    %3CA
    %21T%3D
    B%3C8%27I
    4
    EL
    %7D8
    g%28
    %28_
    %26
    %3Dqg
    pJ
    1M%28
    %29%5B
    fib%7DS
    %3AY
    %7C%22
    %29%7B
    %5B%21
    u5%25JN%60n
    %5B%23%27
    /%26%3A  <----- FAILURE
    2
    %5D%23%25
    %3A%5B
    7H
    mo
    %27
    F%5D8%5C%7C
    LQ3
    %3F%60nh%7Co%7C
    %5CinS%3A
    Yz~F  <----- FAILURE
    %2Cy
    %24%28%28
    %5E0
    %3FHi
    %5Cf
    Y%3B
    Ci
    Z8
    qfcd%28%29
    Y%26de%25u
    %5CX
    C
    b
    %7Bfom
    %40%7C
    %3B%5Ef
    %7D-_  <----- FAILURE
    %28%7D%22P
    q%5C
    T%7C
    %7CC
    i%7D
    G%21S-2  <----- FAILURE
    t%5B%25%29~  <----- FAILURE
    oZ
    9cOD
    %29
    v%60%3Bo
    x%2C
    vvR
    %3F~%2B  <----- FAILURE
    vS%3Dh
    A%3B%29
    %2A%28wR
    %29%28
    y
    I%40
    %5C%28H%296T
    h%5Cq%26%22%3D
    KQ
    %29%40%2C
    8%25
    %3F%7D
    %5Dd%3DW.
    %60U%60a
    ~572  <----- FAILURE
    q
    %3F%2C%7D
    9KI
    h8
    Pe6
    Gy
    %29%40%3D
    p5Q%2A
    %3EU
    %21%25
    %2A%2B
    I%3E
    N
    bn
    B~  <----- FAILURE
    34
    td%23
    QE
    1%21
    I
    z%7D
    2B
    1%7C
    %5Dc
    ~%3E  <----- FAILURE
    O
    H%3F%27Bt
    %22%3CH
    %273
    %7D%5Dxb%5C
    l%3DQ
    %28%21%60
    %26%3Eq
    %3E%40HB%3F
    %7D%3B
    %29%2Ah%23
    %5E%7C%3B
    %5BN
    .G9%3F
    C%27%40%3F
    %3B%2BGF
    %22%3F
    %29a
    %7C%23f%220_
    x%3Ao
    xB
    %24_%7B
    w%60%26
    %22t
    %40%5D%3Ef
    %3AL
    y%3An
    1A
    %2A%5D
    P5
    Zio%3C%25s
    6x
    8j%7Dp%2C_%25
    FO
    M3%3F
    %5DK%29
    %3Ev%286
    %7B%2C%7C
    %60wCw
    ne
    52
    K%5D-b9  <----- FAILURE
    62x
    D%29
    %40E
    %28E
    %29z
    %3Be
    T%3F
    %2C%27P
    %3C%25Y
    %7D%22
    %3D%25%25%29%3AD
    DY
    VFOwH
    c
    M%2A
    %23%2A%25
    ea-I  <----- FAILURE
    eU%3A%7C%2C%25%3E
    f
    %7D%25/  <----- FAILURE
    %5Bg
    %27g
    %7Br9
    x%5CX
    _%3B%27%5C
    9K
    Li%7B
    2rbzAK
    pgv%5B
    H5
    %3DC%29g
    .k
    21%5Bk
    Qc%3F
    %21%21
    Q%3A/  <----- FAILURE
    4%3AC
    h%21
    %3B51
    y7
    %5E%22
    Wc
    %40%29od
    %5B%40%7C%2A/%28%3D  <----- FAILURE
    %23o
    aj%22
    I%24H%25
    u%25
    %7B%3B
    3%24
    %29q%26
    %21~  <----- FAILURE
    %5B/B  <----- FAILURE
    %287N
    yZ
    %28F
    HY%5B
    %27%7D
    %26U
    %21%2B
    %5Bhp
    i~  <----- FAILURE
    %5C%26
    B%27n
    %21~%5E  <----- FAILURE
    S%22
    %24w%7C
    %2BjG
    Tg
    a%40%26%2B
    %2C9-  <----- FAILURE
    g%3E
    fT1%25
    %40iA
    K%26
    %3Ak
    d%24~  <----- FAILURE
    P%26
    Z%26
    X9
    %2A%7B
    y2%25
    m
    Fx%2B
    %3B5jd%3D%7C%27
    RFa%5DEM
    m%22
    k%29
    4%28d
    9i%3F
    %26%5B%2AL
    %2B%3E
    e%27
    q%7B%27
    ze
    %3Fr%60
    ~  <----- FAILURE
    5jr
    R%5B
    %7B%2A
    K7
    vh
    %60%23Pf8%5Eu
    z
    Y%7C%5C
    %3FB
    %2Cd%241%2A%5D
    %3BX
    sp
    %3A
    %25%22
    0Zyg
    V%28
    f%29
    sZ%3C%5C
    j%2A%23d
    %253
    N%22%3C%3Cfp%2A%7B
    %24N%3E%5DO%23sKA
    %2Bo%40VX
    p5
    %5E%60%40Z
    nJ
    %3E%27%2Bf%7D%21%60
    %7C%24
    R%3E%3A
    %22%60
    %7B%3C
    %3D%28%2C
    u%22
    nOt
    %2A8%7Bh
    %2B7
    7d
    ~A%7B  <----- FAILURE
    %21
    A%22
    ~A7%28%2B%7D  <----- FAILURE
    0%5B
    %7C%5EA%40%27
    %40t
    %5D
    %22%5B
    %21WBX%2A
    %5D%3D
    %27N
    %5B%2C
    FW%3D
    A5R8p
    %60%27L%5EMM
    6
    %40%60
    q/%26S  <----- FAILURE
    uDV
    %3D
    %7C%3Ee
    %27c
    3%3C
    %60%7DOy
    -%3E  <----- FAILURE
    %5E%7C
    e
    %24%3F2%22G
    %27A
    Bu
    a%273
    7
    N%21%214
    d%5E
    de/6  <----- FAILURE
    v%5B
    rP
    %7CzP
    o9%24Y%3C
    f%21-%28  <----- FAILURE
    %3B%3B%3B
    %28%25
    %3E%25
    %3Ch
    3%3F
    %5DF
    %24%7B
    %7D
    %3A%7B8%3Ev
    m.%3D%2A
    UD
    %24%5C%3Dln
    %27%3A
    A
    R%7C
    9%27
    %3Dq
    %3ENz
    %228
    %29b%5Eh
    %24%24
    %23K
    %242b
    S
    %23
    %7D%3C
    T.
    2%25%40
    7g
    p%29
    DPn
    %28
    0%25
    1b%3F
    %2AoB%7B%604T
    FZ%5B%40
    B
    %3C
    h%26
    p%7C%22FO
    XN
    %264%21
    %216
    h%3C
    %25%2C
    %2A%3B
    R
    %3FB%3E_
    %60%3DJn%26
    %27%5B
    Z0%21r%7B%5B%5B
    03~  <----- FAILURE
    f%3D%27
    %5B%3A
    %25%3A
    %2BI
    Y
    %60r
    -  <----- FAILURE
    x
    %25%21o
    z%25
    h%26%29%5C
    c%7C
    %407sb
    ~%2A%233  <----- FAILURE
    %40
    q9L%60k%28G
    %5D%3A%29
    8%24u
    %5Eu%60
    l14O%22
    zWU
    %21%21%3C
    %25OP
    %3B%21_k
    0~  <----- FAILURE
    /%26a  <----- FAILURE
    %26y%5Cr
    i%3A%3E%7D
    %5Dm
    jH%29
    %25k
    1E%601%7CQ%3F%7C
    %7B3
    WA%2A
    %3F%28P%3C
    %5C
    %3F%29
    4%25
    vcZ
    G3
    %3Bt
    H
    -cn  <----- FAILURE
    O%21%21%2C%3C%25
    V.
    %2An
    JP
    %29%5E%3B%5Cy
    %5D%26
    X%23
    F_
    %3A%25K
    E%2B
    C%7CU
    %229
    %3E%21
    k
    %3F~l  <----- FAILURE
    %60%27
    38Q
    %7C%27
    _%40Fs
    OF
    P
    DHYkl
    U
    o%29%24C
    %5CO%27%60%5BMl
    a%27
    %21K
    Dj
    %408
    1
    %24%3F4%2C%7D
    %2B%23
    .M%7C
    %3Ba
    %5E/  <----- FAILURE
    ZJ
    %2C/  <----- FAILURE
    %3C%3F
    %22%2A
    4%5D
    %27k%5DF
    %3C%5C
    %25m%40
    %3FA
    .YX
    %23%60
    %23b
    p%7C%3F
    Q
    %2BJ
    %25%7B
    %21%27x
    %29Q
    Z4
    %7BS
    %40%2C%40
    g%29
    %7B%27AN
    %22
    %2BX%2B
    rR
    %5B%25b%25
    %21%5EYgw%5BI
    %26ZR
    %29es/%5B  <----- FAILURE
    3%5E
    %2B%7D
    %3Fy
    mE
    N%40Q
    Vb%3B
    n%3F
    EJ
    /%2Ap  <----- FAILURE
    %24n%3D%5B
    %5CW
    9D
    %27Q%21
    %2A
    h
    %7C%27%2A%40
    %40J
    %22%29%5C
    .5
    ws
    4VA
    j%7D
    /E%5D  <----- FAILURE
    Or
    Ct
    fi
    %25%7BK
    %5C%3C
    %403
    %5Bb
    t%26%28%7DE
    %2At
    %24J
    /JN  <----- FAILURE
    a%3Ck
    k%5Eo
    /H  <----- FAILURE
    %40%60%5D%2A~  <----- FAILURE
    r%3F
    Kr-JZ  <----- FAILURE
    s0
    %3C%7B
    D
    %5B%3F
    %25o%7B6
    U%7D
    Wov
    SH
    c%286
Recall: 0.926, Precision: 1.0
Example gen time: 2.3646154403686523
Scoring time: 10.263968467712402
