

Initial grammar loaded:
start: t0
t0: t0 t0
    | "%"
    | "_"
    | "/"
    | talphanums
talphanums: talphanum
    | talphanum talphanums
talphanum: "a"
    | "b"
    | "c"
    | "d"
    | "e"
    | "f"
    | "g"
    | "h"
    | "i"
    | "j"
    | "k"
    | "l"
    | "m"
    | "n"
    | "o"
    | "p"
    | "q"
    | "r"
    | "s"
    | "t"
    | "u"
    | "v"
    | "w"
    | "x"
    | "y"
    | "z"
    | "A"
    | "B"
    | "C"
    | "D"
    | "E"
    | "F"
    | "G"
    | "H"
    | "I"
    | "J"
    | "K"
    | "L"
    | "M"
    | "N"
    | "O"
    | "P"
    | "Q"
    | "R"
    | "S"
    | "T"
    | "U"
    | "V"
    | "W"
    | "X"
    | "Y"
    | "Z"
    | "0"
    | "1"
    | "2"
    | "3"
    | "4"
    | "5"
    | "6"
    | "7"
    | "8"
    | "9"
Precision set (size 1000):
Passed
 ElI
Passed
 //
Passed
 X%
Passed
 pm
Passed
 8l
Passed
 %%%
Passed
 _Re
Passed
 SL/%
Passed
 %/s
Passed
 tGG
Passed
 tc
Passed
 /LYgR
Passed
 sY/_
Passed
 RMD
Passed
 %/%%/
Passed
 ey
Passed
 E1hhBt_
Passed
 y
Passed
 u
Passed
 DEf
Passed
 %p_
Passed
 kp7Vgva
Passed
 NYo
Passed
 %2_
Passed
 jq%
Passed
 lZP3_
Passed
 0X
Passed
 nWPFv
Passed
 Uh/
Passed
 N/
Passed
 %J
Passed
 xZd/
Passed
 %/if/
Passed
 %RaCz
Passed
 tAd_
Passed
 2
Passed
 _TXr
Passed
 wL
Passed
 FCKfg
Passed
 adw_
Passed
 /x
Passed
 m%
Passed
 /%k
Passed
 6qt6Y
Passed
 I6J
Passed
 ssbf
Passed
 3N_
Passed
 _lL4v3fT
Passed
 jha
Passed
 LDuO
Passed
 0/_
Passed
 nk2
Passed
 ZOg
Passed
 O5_R
Passed
 T
Passed
 /Q
Passed
 mU
Passed
 V3ta
Passed
 Syc
Passed
 %V
Passed
 H1516rVXBVm
Passed
 1C
Passed
 Kfp
Passed
 _/V%_
Passed
 %LDzVTi
Passed
 Ef%
Passed
 _c
Passed
 UN/
Passed
 joGm4
Passed
 hcU0
Passed
 3_
Passed
 C_
Passed
 /h
Passed
 _X
Passed
 1ZB
Passed
 eWc
Passed
 wqkU
Passed
 oz
Passed
 C6
Passed
 TB
Passed
 yQnST
Passed
 MT
Passed
 /Nls0
Passed
 QF
Passed
 W7
Passed
 8E
Passed
 7
Passed
 9/
Passed
 Jb
Passed
 Qgy
Passed
 /_oG8j/
Passed
 Q/l
Passed
 gB
Passed
 VP7p
Passed
 tIY
Passed
 vkW
Passed
 H6
Passed
 k/
Passed
 %e
Passed
 Xo
Passed
 0Kcv
Passed
 iW
Passed
 k_
Passed
 _/_%
Passed
 uu7x
Passed
 _v%/
Passed
 /ao%
Passed
 5%/
Passed
 /p_
Passed
 H%
Passed
 2T
Passed
 ///
Passed
 xI
Passed
 /KvG1i_%%
Passed
 27P
Passed
 cC
Passed
 1
Passed
 cM9
Passed
 7nu
Passed
 6
Passed
 SkO
Passed
 _/_YTJk
Passed
 _%_
Passed
 Ig
Passed
 oT
Passed
 Ss
Passed
 LZ_
Passed
 x
Passed
 Pps
Passed
 kC/
Passed
 %x
Passed
 z2b
Passed
 F
Passed
 12E
Passed
 _%_%%%/
Passed
 FAt
Passed
 _n_
Passed
 KwzVGoU
Passed
 qrs
Passed
 DAhDEa
Passed
 %r
Passed
 TVm
Passed
 E4wXl
Passed
 _D
Passed
 17
Passed
 ni
Passed
 __9p_g
Passed
 b%
Passed
 %//
Passed
 M%
Passed
 th
Passed
 z%
Passed
 //S
Passed
 0/
Passed
 91E
Passed
 B
Passed
 Pc
Passed
 X8pjQ
Passed
 Y/%/%
Passed
 fxL
Passed
 bPD3
Passed
 _PjgiyJ29B_
Passed
 Sk
Passed
 wxQ
Passed
 ok
Passed
 EK
Passed
 r_/ux
Passed
 _K
Passed
 __/y
Passed
 pRv/
Passed
 y4
Passed
 /
Passed
 yY%%%
Passed
 Rlztk
Passed
 Se
Passed
 _%//_
Passed
 zj
Passed
 mOcmdd
Passed
 5s
Passed
 0jZ4q
Passed
 KNgF
Passed
 X
Passed
 %_%_%
Passed
 G
Passed
 k%/C
Passed
 O_
Passed
 QW
Passed
 LBC/
Passed
 9q
Passed
 ej
Passed
 ydE%
Passed
 x%%
Passed
 %%/al
Passed
 mYhN
Passed
 //%
Passed
 m___//I
Passed
 c3Xk
Passed
 _sKOwGb_
Passed
 s_
Passed
 D3Y
Passed
 uWe1Z
Passed
 gD/%_%
Passed
 Zra
Passed
 NhSz_%
Passed
 2BCAq5
Passed
 _Ykk
Passed
 KGd
Passed
 /mt
Passed
 /D7
Passed
 V
Passed
 %_%
Passed
 E8
Passed
 /__%
Passed
 m_
Passed
 3k%
Passed
 S/XC
Passed
 roQ%%
Passed
 _/_/6p
Passed
 ft
Passed
 b
Passed
 %_e
Passed
 qpA/
Passed
 /M9k_
Passed
 vrf
Passed
 oaZ_
Passed
 bq
Passed
 5X
Passed
 PXPx
Passed
 A_%
Passed
 %
Passed
 %_%UJ8S
Passed
 uFhMqUyF
Passed
 /U9f
Passed
 7R
Passed
 4x
Passed
 veW_
Passed
 eO9f
Passed
 5RTy
Passed
 /__%/
Passed
 _s/
Passed
 08w
Passed
 yczm
Passed
 8u/
Passed
 SV_
Passed
 s1
Passed
 Go
Passed
 eQ
Passed
 %9W_
Passed
 hm1U
Passed
 d
Passed
 WcY
Passed
 Vo
Passed
 Z
Passed
 xe
Passed
 /yl
Passed
 fxN
Passed
 KU
Passed
 iA5V/
Passed
 PT
Passed
 jO4R1FIa
Passed
 /o/
Passed
 74Fk
Passed
 __RWynK
Passed
 l
Passed
 ZU
Passed
 IMLoc2_/__%/%
Passed
 yzL
Passed
 fw4
Passed
 _a
Passed
 %%
Passed
 V0
Passed
 7d
Passed
 K51
Passed
 jVd
Passed
 %__%__
Passed
 ra
Passed
 %gN%_/
Passed
 TY
Passed
 Ug
Passed
 fFz
Passed
 VY
Passed
 p
Passed
 /6
Passed
 n
Passed
 /at
Passed
 %5b8f%
Passed
 Wd
Passed
 C0o
Passed
 7/__%_L
Passed
 odZ
Passed
 p42lUUNVLOjM
Passed
 awv
Passed
 ChgFyrmF%
Passed
 %PGf/_
Passed
 xg%
Passed
 jWxekP
Passed
 cafSmDFq
Passed
 %%/_
Passed
 zx
Passed
 m3_
Passed
 3
Passed
 PSn2gN
Passed
 ___/%%E
Passed
 EvF
Passed
 iU
Passed
 xZ
Passed
 TzQ2eo
Passed
 q9
Passed
 /%%/
Passed
 zT
Passed
 /wdm
Passed
 3b
Passed
 w_%
Passed
 UGvN%
Passed
 lR
Passed
 9b
Passed
 tOBUT%/
Passed
 ST
Passed
 Tnsl
Passed
 Tq
Passed
 //i/
Passed
 9CguT
Passed
 TbjK
Passed
 %/_/_
Passed
 s
Passed
 %%/
Passed
 rP0
Passed
 R8i
Passed
 E97
Passed
 BC
Passed
 _n7j/
Passed
 q46
Passed
 Ir
Passed
 F_
Passed
 %Y_
Passed
 _//_/R/_
Passed
 sfSs
Passed
 //_
Passed
 %4
Passed
 j4
Passed
 %/%%
Passed
 vJ_
Passed
 pC
Passed
 /T7/
Passed
 Q
Passed
 L1x
Passed
 %%Q
Passed
 qP
Passed
 8P
Passed
 ooe
Passed
 _3y0Y
Passed
 jY
Passed
 p/
Passed
 _/_
Passed
 VY__
Passed
 hb
Passed
 %__
Passed
 S/
Passed
 Zao
Passed
 cocIX6
Passed
 pI
Passed
 vT
Passed
 N
Passed
 1%
Passed
 jt
Passed
 bVN%
Passed
 _%
Passed
 oxsD%
Passed
 9xX
Passed
 MQW
Passed
 /g1O_
Passed
 aK
Passed
 /P
Passed
 %%/%_CYB
Passed
 l3W
Passed
 Cyu9g_//
Passed
 NOp
Passed
 nT
Passed
 W
Passed
 Hz
Passed
 %ZDrxe/
Passed
 38
Passed
 Wu_%Ab%
Passed
 _//
Passed
 dD
Passed
 /__
Passed
 w3_
Passed
 qPA
Passed
 Kre
Passed
 r
Passed
 sd
Passed
 LV8w
Passed
 2o
Passed
 /p2
Passed
 Fu
Passed
 bA92aq
Passed
 0h
Passed
 __%j
Passed
 H5z
Passed
 YO
Passed
 /%_/
Passed
 _U
Passed
 S/%%P
Passed
 kDq
Passed
 rj
Passed
 /_%_
Passed
 FC
Passed
 ef
Passed
 /%Z
Passed
 Pl
Passed
 cR
Passed
 4%
Passed
 hq_
Passed
 Wh//
Passed
 /_%/_
Passed
 %/%/
Passed
 Qt
Passed
 us
Passed
 AaY
Passed
 /_%__/
Passed
 fu
Passed
 sR
Passed
 %2K
Passed
 IPYTj
Passed
 0b
Passed
 6j
Passed
 /IL6e6Z5z3
Passed
 c7u/
Passed
 bUsp
Passed
 _WX6
Passed
 A/
Passed
 _h_
Passed
 MC
Passed
 LFTnrc
Passed
 7wK
Passed
 Ls
Passed
 yLxf
Passed
 EigAd
Passed
 rX
Passed
 4W
Passed
 X1Q
Passed
 A
Passed
 GcX0K
Passed
 Vh
Passed
 s%_%
Passed
 %FCeK1VriDRpVT
Passed
 t_
Passed
 w
Passed
 %N//
Passed
 j%%
Passed
 39I%/
Passed
 Hw
Passed
 PpOA_t
Passed
 %_Y/
Passed
 /KTH
Passed
 %Zfe2Z
Passed
 GU
Passed
 _e
Passed
 3ROw
Passed
 a
Passed
 q%
Passed
 8a2
Passed
 %/_i
Passed
 _bv
Passed
 NT_
Passed
 /_W
Passed
 Jd_7s%
Passed
 /K%
Passed
 1Ve
Passed
 R2Y
Passed
 8z%
Passed
 g
Passed
 T%h
Passed
 wr
Passed
 nBo
Passed
 5gC
Passed
 Q1
Passed
 %/%%%%%%
Passed
 bQ
Passed
 7pd
Passed
 IN
Passed
 5Xbr
Passed
 8x_%
Passed
 /AwEtcbG
Passed
 7NEO
Passed
 _/
Passed
 imO
Passed
 %R
Passed
 mGJ
Passed
 _t
Passed
 /%%
Passed
 X3W
Passed
 SWOP
Passed
 go
Passed
 pw8G9AR
Passed
 oqZ
Passed
 5gl
Passed
 /nds_fu
Passed
 gqT29
Passed
 kYA/
Passed
 5
Passed
 oJ
Passed
 T0
Passed
 /%b
Passed
 AN
Passed
 La4NMQ/
Passed
 __//%%
Passed
 8
Passed
 i
Passed
 q_
Passed
 A3
Passed
 __%
Passed
 4TB
Passed
 G/
Passed
 _/__d2
Passed
 GlL
Passed
 _1
Passed
 %/%__
Passed
 N1_%__
Passed
 z
Passed
 A4
Passed
 AA0
Passed
 %bQLg
Passed
 %oF
Passed
 7J
Passed
 j5M
Passed
 /%%__
Passed
 bo
Passed
 KN
Passed
 bK3_
Passed
 1H2%LCQfNF
Passed
 sh1M5KP
Passed
 juOw/
Passed
 abD
Passed
 _u
Passed
 a3gf
Passed
 %B____
Passed
 0uI0
Passed
 /k
Passed
 %k
Passed
 %/_
Passed
 /_qgwx6S
Passed
 yCb0
Passed
 GHmS%
Passed
 %K1kX_
Passed
 G7xnX
Passed
 q8
Passed
 zd
Passed
 fl
Passed
 fkB
Passed
 GHB
Passed
 o7c
Passed
 XNz%
Passed
 ZDI3wu
Passed
 Gvb
Passed
 0pTmp
Passed
 ab
Passed
 _%/
Passed
 __5
Passed
 /hvE
Passed
 1zV4N
Passed
 t%
Passed
 We
Passed
 _/%_4P50
Passed
 Xe
Passed
 VL
Passed
 %pf/
Passed
 va
Passed
 /oc/
Passed
 j0
Passed
 /_c6
Passed
 %__%_
Passed
 /_Y/
Passed
 zmwED
Passed
 AkR
Passed
 e9
Passed
 ZIR
Passed
 nABEk
Passed
 6KHj/%
Passed
 /36
Passed
 5togzh
Passed
 46P
Passed
 O%/
Passed
 oI%
Passed
 bC
Passed
 %HBTe_TjM
Passed
 /_%%
Passed
 PF
Passed
 bT0RPM
Passed
 _hh
Passed
 %u
Passed
 qkvU
Passed
 h_%
Passed
 /%_
Passed
 8Ko
Passed
 _/_/_
Passed
 aoKslIP
Passed
 _/_%_
Passed
 _WcrM4U%_AB
Passed
 /9
Passed
 J_
Passed
 _L
Passed
 0_
Passed
 VG
Passed
 9TYSH
Passed
 /%%iQL
Passed
 _%/%_
Passed
 /q
Passed
 w3
Passed
 ovrFS
Passed
 _x
Passed
 /m
Passed
 %_882
Passed
 Nf
Passed
 Sp
Passed
 M%Se
Passed
 e7%
Passed
 zb
Passed
 %t
Passed
 J8wa
Passed
 0oN%
Passed
 %L
Passed
 w7w
Passed
 m
Passed
 M
Passed
 3H
Passed
 T02
Passed
 d9
Passed
 kB
Passed
 U
Passed
 4_%
Passed
 V/1
Passed
 6A_%
Passed
 _
Passed
 eA
Passed
 /_
Passed
 eKRcwr
Passed
 6t_/w
Passed
 K8A
Passed
 j
Passed
 7YVWwv/
Passed
 4
Passed
 e%
Passed
 Q6F
Passed
 %_//_
Passed
 vti08wzSRm
Passed
 _zt
Passed
 c
Passed
 cTwNCIf
Passed
 R
Passed
 %/_%G%/
Passed
 Bfs
Passed
 /O
Passed
 wHv/
Passed
 nnfI
Passed
 K
Passed
 JMAM/
Passed
 %%%4aA
Passed
 _%%_
Passed
 v
Passed
 NnB
Passed
 /Ug
Passed
 rt
Passed
 wK
Passed
 %4Tf
Passed
 /_%
Passed
 PN24hRPIzOw8otM
Passed
 /_%%%
Passed
 %/zeg%
Passed
 64
Passed
 jj
Passed
 WLPBN4
Passed
 lg
Passed
 __/CV
Passed
 rqc/
Passed
 %D
Passed
 pE
Passed
 _2OJ5
Passed
 0I
Passed
 f%/_
Passed
 4Y
Passed
 mg
Passed
 g2
Passed
 Q_
Passed
 rUQ
Passed
 Ya
Passed
 tsv
Passed
 k/%
Passed
 w%
Passed
 Ygv
Passed
 71
Passed
 _%WM
Passed
 /z
Passed
 t
Passed
 __h5
Passed
 PX
Passed
 cS
Passed
 5LSL
Passed
 I9Pf
Passed
 x4gPX/_
Passed
 kkE
Passed
 PR
Passed
 iJ/
Passed
 Osp
Passed
 C4
Passed
 2h
Passed
 Ek
Passed
 _%/%
Passed
 _%%
Passed
 ivC
Passed
 Jc
Passed
 %%/%
Passed
 0v
Passed
 %TPK
Passed
 0D%
Passed
 8_
Passed
 rg
Passed
 Zu
Passed
 D
Passed
 /N
Passed
 b_
Passed
 Jo
Passed
 M__%%
Passed
 d2
Passed
 _/_%%__
Passed
 /_/
Passed
 zJyV
Passed
 fhx
Passed
 lOL
Passed
 hQa
Passed
 I3689
Passed
 hvv___
Passed
 cm1b
Passed
 X%//
Passed
 mx
Passed
 WBo1/
Passed
 wzC
Passed
 g4OC
Passed
 uC4
Passed
 __
Passed
 o
Passed
 295b
Passed
 4Ins
Passed
 E
Passed
 /e%
Passed
 6yUMw
Passed
 74y1vW
Passed
 g/
Passed
 _%_G
Passed
 UlQ
Passed
 KBT
Passed
 w%/
Passed
 kvZ8aHJc7D
Passed
 /%9a
Passed
 mQS
Passed
 _ExEt
Passed
 ED
Passed
 aj
Passed
 dd_
Passed
 /8
Passed
 G5
Passed
 %%o
Passed
 Wh
Passed
 mwSAJ
Passed
 S
Passed
 _R0TUq
Passed
 To
Passed
 _%%/
Passed
 Ojj/
Passed
 q
Passed
 8k
Passed
 Ef
Passed
 Sw%
Passed
 YS%w3/
Passed
 //JHJLZ
Passed
 /X
Passed
 Hh
Passed
 RlZ__%
Passed
 HPQ_
Passed
 /%/
Passed
 hOR4_//
Passed
 /8_/_
Passed
 v0
Passed
 qW
Passed
 pJ
Passed
 _zY7U
Passed
 __8y
Passed
 %__/
Passed
 gA
Passed
 okp
Passed
 P
Passed
 3R
Passed
 lw
Passed
 i1%
Passed
 _G
Passed
 Ja
Passed
 fKv
Passed
 iE
Passed
 5d/
Passed
 %%b%z
Passed
 Vp%/%
Passed
 FZHCz757n
Passed
 iWH
Passed
 Rn
Passed
 gM
Passed
 BZ5NnR
Passed
 Y
Passed
 H
Passed
 NwJKe
Passed
 %M%
Passed
 2%__%
Passed
 Cdf
Passed
 %_
Passed
 __/%
Passed
 bd
Passed
 _2_
Passed
 _7Y2
Passed
 f
Passed
 pfgg1
Passed
 sdR
Passed
 ry
Passed
 CS/q
Passed
 Y/
Passed
 //%__/F
Passed
 %269__%
Passed
 %f%%%/__
Passed
 6H68sMV
Passed
 r2
Passed
 EKb3
Passed
 34c
Passed
 irS
Passed
 _%%_/
Passed
 vvN
Passed
 MX
Passed
 %%__//
Passed
 fGSA2d5
Passed
 yO
Passed
 tktx7
Passed
 76
Passed
 /%
Passed
 oXupsk3
Passed
 vG/
Passed
 _///
Passed
 %_/
Passed
 _%%%/
Passed
 xJs
Passed
 RKAb
Passed
 koq
Passed
 G_
Passed
 KL0hxk_hg/
Passed
 wXPoW
Passed
 9g9
Passed
 %%_
Passed
 Pzj
Passed
 nX9WOXac
Passed
 c_/
Passed
 uX0C
Passed
 Im
Passed
 %8
Passed
 Hu__
Passed
 Byh/
Passed
 WEP
Passed
 g%_
Passed
 0L
Passed
 J
Passed
 %_H1Zz_QKK1O
Passed
 Y_20Xm
Passed
 1mV
Passed
 _TJ
Passed
 6W
Passed
 Vv2j4P
Passed
 0
Passed
 lr
Passed
 KC
Passed
 L
Passed
 I%_/
Passed
 _PWp
Passed
 qV
Passed
 6A
Passed
 %luq
Passed
 _%y
Passed
 uS
Passed
 aWpVG
Passed
 %p9
Passed
 r_
Passed
 _%d/
Passed
 E/
Passed
 _%/u
Passed
 //Y
Passed
 ___
Passed
 4C%
Passed
 aw
Passed
 4D
Passed
 O
Passed
 us%/
Passed
 %/
Passed
 qy
Passed
 5GCK
Passed
 /_AFdF
Passed
 XnN
Passed
 _crUw
Passed
 q0fU
Passed
 /___
Passed
 UOqH
Passed
 V4
Passed
 _%_R
Passed
 A9Z
Passed
 43jJ
Passed
 7NP
Passed
 _5L
Passed
 %M
Passed
 k
Passed
 gSj
Passed
 7pr
Passed
 I6
Passed
 wz
Passed
 4S
Passed
 E2
Passed
 p39
Passed
 T1
Passed
 xy
Passed
 cp
Passed
 vMjlU
Passed
 Mg
Passed
 GZ
Passed
 1lEnIS8h
Passed
 O/
Passed
 /3uoFH
Passed
 3/
Passed
 %/i
Passed
 r8
Passed
 _J
Passed
 __/
Passed
 /Aw%
Passed
 TV
Passed
 /9opEjC_
Passed
 Lcj
Passed
 qL
Passed
 %qf
Passed
 xA
Passed
 qh
Passed
 %///h
Passed
 /F5UCSD/
Passed
 g62z
Passed
 5e___/
Passed
 3F%/H8j
Passed
 XpY
Passed
 9
Passed
 Nu
Passed
 02M2
Passed
 %o%
Passed
 R_
Passed
 3y
Passed
 sN
Passed
 H5
Passed
 %uMzm
Passed
 4a
Passed
 Irb
Passed
 _N
Passed
 5PQsz
Passed
 I
Passed
 C
Passed
 _41
Passed
 e
Passed
 _v
Passed
 %U/
Passed
 S_
Passed
 ak
Passed
 grZ_
Passed
 mk
Passed
 Ya%
Passed
 Vr
Passed
 Tbhw7
Passed
 h
Passed
 Vc%
Passed
 5H
Passed
 %f/
Passed
 sqz
Passed
 %Nq
Passed
 Bx/
Passed
 Yb1
Passed
 80
Passed
 6pj
Passed
 __%/
Passed
 zL
Passed
 /2lr
Passed
 Q9
Passed
 L0
Passed
 mf
Passed
 Fw
Passed
 t77p
Passed
 IM
Passed
 DV
Passed
 /%_/_
Passed
 %_%%
Passed
 Cf%y
Passed
 _xy
Passed
 g7
Passed
 %j
Passed
 G%
Recall set (size 1000):
    J%26%2A
    d%22
    Y%3B
    N~  <----- FAILURE
    wS%3F
    vq
    %22%28
    B%5B%5DZ
    PA
    p%25JA
    .  <----- FAILURE
    t%60
    ~  <----- FAILURE
    o%5B
    %5B%3B
    %7C%2B
    %7Dj
    %7B%3E%7B%25%3C
    %3A%2B
    %25%40pG
    %3C%60
    zN
    %2Cg
    %5Ey
    gg%3B
    e%3B5
    M%22
    %3Ao
    %22%23x
    %5E%5Ef
    %3FU%3D%3C%7C
    H%5E
    %5C%3B
    v9%219
    %5Cg
    g%3C%5B%2CN4%3A
    2d%3Dn%241
    n2
    %5Cgp
    -%5B%5E  <----- FAILURE
    %27%3D
    %28%25
    %3B%3Ab
    Z%3D
    HMq%3A%2Cs
    %27
    3%5Bs
    d
    %5E/%29
    %3DU4hPT
    %21%3E
    mD
    %21%60
    QH
    q-  <----- FAILURE
    y%29%5C-m  <----- FAILURE
    %5CF%29
    %3DKr
    %7Ck
    N%3B
    %3DU
    i4%3D
    %29%27A%2C
    %5E%3F
    _%25
    n%28
    KU
    %5D%3C
    tn
    A
    X%60
    e%24%7D
    %3E%24
    sul
    %7D9
    ER
    %3A
    %7B%24
    %26%7D
    J
    Zz
    6x
    %2As%22
    w%5D%23
    %23%3E
    %7D3_-  <----- FAILURE
    t
    %28m%29
    %3Bh
    .k%7C%5C  <----- FAILURE
    %7B%3B%7B
    r%5D
    H%2A
    A%5E
    %60%23
    m%60JI6
    3A
    %21%22
    5
    M%2CPU
    2%3E
    V%40
    %28z
    z%27
    %3C%26
    D%21
    d%5C
    A%22
    %2Aq
    %5C%27%3Az
    %2C%5CE
    %22%5B
    %5B_
    %60x
    e%27
    %3C%23Z%5D%7D3
    %28%23
    E%24%241%5B
    %28k
    8
    XN
    %3B
    %28
    Yi
    S%2C
    %28%5E%28%7Cy
    C%3DU
    %3Db
    %3Cf
    j%29
    %23%27
    FA
    QK
    %3E4
    %5E%3CK
    Dfv%2Au%23
    %7BY
    Fl
    X9
    hehI%5D
    w%3A
    %22%5C
    %5Cg%7C%22
    Q%28
    %3A%2Bg%28
    4l
    w%3E%21E
    %24
    %2C%5D%24ke.  <----- FAILURE
    %3FV%7C
    Uw
    7%2B
    w%3A%28
    o5
    %5Ea7
    %271
    %21D%27
    %40%5E%5D
    f%60
    %2B%7D
    y%2C8%3D-  <----- FAILURE
    Hc
    %3B%27
    ARo%40
    Z
    C%22
    K%29F4
    %7B%3F
    2%7Dl
    %40%29%3F%3B%2A%5E
    %7B.  <----- FAILURE
    v
    %40-_  <----- FAILURE
    %3B%24%40
    u
    dU
    %5BF
    m%22%3F
    r%26f_%27
    %7B%7B
    w3%5D%3A%3E%28%5D
    %5C%22%7Bc
    F%2A%3Dk%26%3F
    %5CY%3F%5E
    %3F%3F%23%21%60
    8bnJoS
    b%22
    Ixc
    k%2A8
    %5B%21
    sS
    De%5E
    %21%3F
    %21%24
    3Mh
    %28%5C%5D6
    %7Bj%24R
    ErP
    YKX
    %3F%23
    %5EWR
    yi
    %40X%24n
    k%23%24g%29o
    t%26S%24%23
    W1%3B
    VzeM%7CsC
    %2B
    %7DO
    %3B3o
    /F
    %225
    %3CV
    %5D%3A
    l%23
    qHnv
    %26%29
    Q
    %5EH
    Wy
    %3Fkp%21
    gr
    Ty
    v%5B%3C%2B
    Q%22
    C
    Xj
    Q%3B
    _%3E%21
    %5C%7C
    M%25jz%3D
    K%7C
    n%25
    %26XK
    %2B%25
    %3Djh
    5%24v
    %24%40
    %26%253%21
    %3C%7C%7C
    %5D%24
    y%25
    zw
    vz
    H%3E%261
    Vfi
    %5D%3C_
    %21%7B%7B
    x%60
    %21%7D
    %7C%25%3E
    %3E%28
    %3E
    l6%7C
    %25%40
    4%27c%60D%3Cy%27
    o6
    %3E%7C2
    %3D%3DpR
    %600
    %22%21M
    z%60x%7C
    %5C
    w4
    %2B%7B%5C%25
    %3FZ%7C
    1%7CI
    N%60
    M%2B
    Gq
    9%40
    i%3C%5B
    HsE
    %5Bdy
    9n
    %3AH%7D
    %7D%5BR
    2%5D
    %3DJd%25
    %25K%3D
    %5D~2%3A0Q%2C  <----- FAILURE
    f%5BXp
    %29r
    %25x%7C
    6RM%27
    Ig%3Eve%5E
    Kw
    jP
    2u%2A
    %7Dx%3D
    c5QtK
    %29%21/mX
    2%3F
    %3E%274%26
    %279
    %5D%60w%7B%3C%2AF
    %2A9%29
    %29D%21P
    %26s
    ~zd  <----- FAILURE
    %5Df
    %24%7C%2B
    %2B%3D%5Ey
    F
    %22%26%21%7B%27%2A
    9Q
    %2C%22
    %23C%22
    5%7D
    %60F
    %24%5D%7B
    %5E%3B
    %3B%26
    L%2Ao
    %2A%21
    D%25%23%2B
    %5EK
    Xl%5C
    %5Dq
    O%2A
    A%7BN
    y%27
    %27%2B%2A%22
    %3B%3E%2B9%25
    %5C8%26
    %22%3D
    5L
    1e
    %24LvY
    %60%40%3B
    %5E%21
    65
    Ga%2B
    U%2BV
    5PH
    _rw6
    Jd%26
    z9
    %24Q
    %5B%3C%24
    %3C1
    %7BqB%27
    %3Dp
    %5El%3E%3D%60
    %7C%5E
    %29U
    s
    %7D%3B
    %22~  <----- FAILURE
    aC%5BK
    O%3C6%5C
    9
    r%26%60
    %28~a  <----- FAILURE
    LBp
    6%21
    %7D%27
    lrb
    J%3E
    CG%5CGR
    hWK-  <----- FAILURE
    R%22S%3A%3A%3Fd%7BZ
    /%40x%7D
    %3DP
    4%2B
    %5D
    ADLS%3C
    qk
    %7C.G  <----- FAILURE
    %40%5D
    %2BE
    l%25
    %25pIL%40
    UI
    ~%22j  <----- FAILURE
    cx
    S%7C
    %3D%28%21%2A%7B%22
    %2A%5E
    ZRTS
    %27%24
    j%3C
    %5B%3D
    %40%23
    ap
    %7D%5E
    g%26%5D
    %29%25%2A0%5DB
    %29%21
    D%5CJ
    %7Cwb
    %3E%5Cf
    %3EC
    x%3F%5E
    V9%29
    %60f%5C9
    q7Z
    ai
    W0j
    %7Cg
    %5B
    Xc
    %3CY79
    %7D
    w
    J%5C%3A
    %5Cw
    %295H0
    sq%7C%3F
    %7BmM%60
    %3C%22
    wD-V  <----- FAILURE
    %7C%29
    %26m
    %3A/xKz
    V
    /hM
    Qg%21PH
    %5C%26%60%5D%3DZ
    %22%2B
    NM
    T
    %5D/%3C
    %21V
    %5Eh
    f
    vl
    K%21
    %7CnT0
    R%7D
    %24_
    8Q
    2
    %7C%7C
    %7Dw
    _z
    W
    %278%5C%23
    1t
    %5C%3E
    W%27
    %3E%3B
    Y%2C
    %23%60iN
    %3Dzf%2A
    8%5C
    z%7C~  <----- FAILURE
    b%3B.%5ED  <----- FAILURE
    K%5B%3A4
    %2BI
    %27h
    7%3D
    /%2Bms
    %29%5D
    9/H
    %25%3A
    %3En%3AE%3F%27
    %40x
    %7De
    %2CoX
    %2BN
    uu%7C%5E
    %28yD
    %3E5
    %7B
    %25%2B%22%40%3D
    z
    h%29
    %407
    %5EY%28
    P0
    8%3F
    i%22
    %28f
    %25B
    2x%3F
    Ww
    %26k
    r%27
    %214
    %7CP
    %3EL%22%5B
    5%7B
    x
    %22vW
    %29_
    %27v
    /%24
    %60%2Bt%25
    j
    %5D%7C
    %3BQ
    %3F%25%5D
    %7B%3C
    %40B
    Ydu
    0I
    0
    %2BVE%3C
    d%29
    I%3EE%60
    %7Cl%25%5D
    %60A%27p
    6n%28
    %26
    %2Cw
    ro
    lUL
    3N
    y%2C
    %210sR
    k%24
    KA~  <----- FAILURE
    2%7B
    %60/P
    7
    7%3BU%3F
    %3F%26%3DW
    X_
    %26%2C~  <----- FAILURE
    %3C%3BA
    zH
    %25%3B%7B
    yOSH1dq
    z%3A
    Q%5E
    0y%7D
    ev
    y1
    Fg%21Mb
    b~ll.  <----- FAILURE
    %7Ch03
    4lj%3A21
    d%21
    %25Z%24
    W2
    %3F%3A
    Z%3Em
    B
    n%7B
    %7D%7BC%22Su/
    %23O
    H1
    /
    %7C%27
    S
    %5E
    %3C%28
    lL%60%2A
    S%3D
    %3Df%3D
    %7C
    %2B%40s%21%22%5D
    %218
    %23%25
    l%3Ai6O
    l
    %2C2
    %29%7B%29%24
    h
    n%60t~  <----- FAILURE
    %21%21A
    pk%5C
    C_Oo
    %3C%5B%60
    %40%25%3B%3C%3E
    %3Ci%7B%3B
    %21%60g%24
    %3F
    %25
    %29oJ%7C
    %27n
    %24u%7C%2CU
    %5CiV
    Gl%22
    v%40
    Ir%2B
    f%5C
    %5D%7D
    gh
    %3C
    a%26
    q%3DV
    /%3D
    r
    %3A%282%3B
    D%7B
    2h
    H%27
    %28I
    %5E%21%2Am%24
    _%5E
    %3C%40%5D
    K
    x%3A
    %5By
    n
    %2Ba%2A
    J%2C
    _
    %5CIf
    X
    %26d
    %2C%23%7C
    %60
    6
    %21%5C
    /%23ni%23
    o
    %23%7C%2B%24t%60y
    %25%29
    Nn
    %21s
    %3AYN
    %3C%2C
    f%2C%3E%7C%24m
    0J
    %7CD
    Q%5B%26
    K%7B
    %24%29
    3%60o
    %3B%3C2%3D%3EH
    %7Do_JS%7Dx
    Ze0
    %3FnY
    %5D%40
    ~2%5B9  <----- FAILURE
    C3b
    g
    %29%3Aj
    5%24
    o%29
    %28%5Cb
    p%25
    %5E8%7C
    w%27
    %28x
    %24%7D
    %281%29
    Sv
    %2C%3F
    %2CF%5E
    %7Ba
    5%5D
    %26n
    d%3At
    %2A%2362
    %2A%5C
    %3CN%3E%2A%2A%3F/%3EVVG
    %60%60H
    %7CF
    %7D%3Dgo
    1m
    N6H
    Lu
    %23%5EM
    R
    m
    %2C%26%5Db%5Bl
    nh
    3a
    %7C50L%3E%21
    O%3A
    R%3B
    %7B%40%27
    %29%40
    L%3F
    %5Ex
    %2B3
    q%2Ce
    %3C%5D
    l%3C
    %5CQ
    T%21%25_
    y8%5C
    3%7D6
    FQ
    %26P8G
    vf%25
    %28%27
    %3Ci%26
    %3Ef
    pA
    9m%21
    Q%5E%5B
    %23
    %60E
    8%3F%29j
    H%5C%25
    %3B%40
    %5DD
    %25%2C%3D
    %3E%3C
    x7
    %40%26
    yo%3A
    C%60
    5m%21
    %2A%60
    SI
    M
    6%25%3C
    %5E8
    LE
    %2BJ
    %40%3C
    %3Ak
    S_3%23%2A
    %29%29
    %26%21%3C-  <----- FAILURE
    O%3C
    D%3E
    E%3D
    %2B%24k
    Ni
    %2CK
    %3A%21
    Q%5B%27
    IO
    tI
    SEY
    %5CU_
    G
    %3BA6%5DD
    c
    %5E7
    %29%25
    L%5DNP%60
    Rb
    %21
    FF%3D
    a
    %2B1
    ~%3A%2A  <----- FAILURE
    84
    -  <----- FAILURE
    S%3B
    %2C%29%60%3D
    B%40r
    x%3CA%298
    %28A
    s%2A
    Y
    %3B%3E%22
    4
    %25%25
    %22
    %7B8z
    q
    S%3A
    T%3B
    %2B7%23r
    2v%60%5CrH5f
    3
    Q%3D
    in
    P
    5wn%3D
    %21M%25
    %284
    SJ
    %25%26
    %5Be%3B
    %5CUN
    %21I
    %3CLp%27%5DO
    %5E%5E%25
    f%2C%3C%7B%22%3B
    az%24
    U
    %28c%7Ce%7D
    %3B%60T
    t%3A/7y
    4G
    E%3BF
    A%23
    %5DG
    %2Bj
    8e
    %2B%23
    4Eo%25%60
    %7C%5D
    %29%24%26%21%3B
    %2A9K%22%7Dfe
    P%2B
    YG
    Ug
    %293
    iw
    %7D%60%29
    zkk%5B
    %23%7DG
    d%259%3Bz
    %3C/
    p%40
    %5Dl%5E
    at
    j_%5Dg
    %26%7C%7D
    M5%29%269
    %7B%5E
    %3EH
    G%3D%3A
    Sc%2B
    %24%24
    %5Bc
    %5Df3
    r5
    %40%26~s  <----- FAILURE
    9%5B%3B%7D
    v%5E
    %24J7
    9%27
    5h
    %3A%3A
    P8s%28%241
    %5E%3A
    %2BW%28
    %25M
    6%7D
    h%7CN
    e
    7%3C%7D
    0%3B%26
    %2Aw
    5%5E
    p%3Fc
    %29z%2Abs
    %22%28p%5C%60%7B%7C
    %7C1
    x3%3F
    %60/%60%24_%28
    hy
    %7CE%5E
    %3CL
    %7D%3F%3E
    JMQUy
    MZ-O  <----- FAILURE
    ol%23
    l%3EW%3E%3D%5C8%22
    %7B5
    ME
    %25N
    L%22%2A
    v%3D
    %40
    i
    %3B%3C%7C
    O
    %40G
    %23Q
    ~%3E  <----- FAILURE
    mB
    ti%3B%22S
    %7B%7Be
    Vi
    %2C
    h%60
    vf
    s%40
    Q%23
    d%3A
    E
    %5C%7BK%2A
    5r%3D%5B
    y
    %5Dzt0
    %3A%21uI
    1
    %2B%7BH
    w%40
    C2%28v
    %3A%3D%2Aug
    e%3D
    N%3A~sm  <----- FAILURE
    %29m
    %27jC
    Vn%2CP
    %3A%3B0
    %25XMn
    f%5B%40w
    y7
    %3Br
    K%3C
    gs%7B
    %5EX9Q
    0/Z
    xk%23vE%5D
    %5C%21%26q49%3A
    %26q
    %3D_
    %2Ci
    i%60
    m%23E
    %2C%3A%27ZQ
    %26b
    5%60%25
    %7C%40w
    je
    5%24%24
    n%3D%26
    %25%28
    %7C%25
    DD
    K%26%3F
    %268
    Z/%7D%25
    d%2AQ
    7%3Ei
    3V
    Gi
    7%29
    N
    KBs%2B
    k
    %2AEi
    %3AO
    GTS
    sV
    q%5D
    H
    -%3B1%5D%5B%7C%7B  <----- FAILURE
    KT
    %22%3C
    %3CL%3Ffy%3Cr
    .~  <----- FAILURE
    %24%3E
    FU%7B%7D%5B
    %2A
    %21%2B%7B%7D
    %2Au
    QX
    r%3C
    %28%244%3F
    %29K
    zZ
    6E
    %26%7C
    .%29  <----- FAILURE
    %26p
    Q%21
    Fo
    %7DI
    %29
    %23W
    UB5a
    %5B%5E
    %5B%29%5E
    9%21
    4%3F
    R%29
    L
    p
    4%7C
    %275%5B%5D
    .-  <----- FAILURE
    %22%3CA
    b
    tH
    %21%25%2A%24
    %2B%3E
    7a
    Zn
    %2B%269%24a
    b/
    %5BQ
    SN
    %3A6t%23u
    y7%3EV
    %60~  <----- FAILURE
    e%22
    f4
    G%27
    6S
    %3C%5B
    %3D
    y%23%29O%24LAf%29
    D
    Y%5D
    Zs
    E%23E
    d9di3
    %25J%7D
    %28T%29
    %2C%21e
    -AM  <----- FAILURE
    Pd%40
    8C%5Di%3D%3B
    %7D%60
    I
    bK/%5C%3DQMO
    %2C2%29%3F%3B0%21%3D
    %5B%2B
    P%5E%7B
    p%3C
    %2Bb
    aU%7D
    JZ%27
    u%5B
Recall: 0.96, Precision: 1.0
Example gen time: 2.3190383911132812
Scoring time: 10.112272262573242
