

Initial grammar loaded:
start: t0
t0: t0 t0
    | "%"
    | "."
    | "/"
    | talphanums
talphanums: talphanum
    | talphanum talphanums
talphanum: "a"
    | "b"
    | "c"
    | "d"
    | "e"
    | "f"
    | "g"
    | "h"
    | "i"
    | "j"
    | "k"
    | "l"
    | "m"
    | "n"
    | "o"
    | "p"
    | "q"
    | "r"
    | "s"
    | "t"
    | "u"
    | "v"
    | "w"
    | "x"
    | "y"
    | "z"
    | "A"
    | "B"
    | "C"
    | "D"
    | "E"
    | "F"
    | "G"
    | "H"
    | "I"
    | "J"
    | "K"
    | "L"
    | "M"
    | "N"
    | "O"
    | "P"
    | "Q"
    | "R"
    | "S"
    | "T"
    | "U"
    | "V"
    | "W"
    | "X"
    | "Y"
    | "Z"
    | "0"
    | "1"
    | "2"
    | "3"
    | "4"
    | "5"
    | "6"
    | "7"
    | "8"
    | "9"
Precision set (size 1000):
Passed
 G
Passed
 Osp
Passed
 .v
Passed
 Vr
Passed
 FC
Passed
 i1%
Passed
 /o/
Passed
 aw
Passed
 Cf%y
Passed
 /.%%%
Passed
 xe
Passed
 Ss
Passed
 /.%.
Passed
 s%.%
Passed
 74y1vW
Passed
 U
Passed
 V0
Passed
 1C
Passed
 .K
Passed
 %U/
Passed
 0oN%
Passed
 eO9f
Passed
 %RaCz
Passed
 nk2
Passed
 91E
Passed
 NOp
Passed
 .sKOwGb.
Passed
 6A
Passed
 CS/q
Passed
 //%
Passed
 j0
Passed
 Q/l
Passed
 ...
Passed
 uC4
Passed
 u
Passed
 1
Passed
 .TXr
Passed
 N1.%..
Passed
 F.
Passed
 2BCAq5
Passed
 Ef
Passed
 %f%%%/..
Passed
 t.
Passed
 %4
Passed
 K51
Passed
 /.%../
Passed
 mGJ
Passed
 vvN
Passed
 /O
Passed
 V
Passed
 0I
Passed
 8
Passed
 lR
Passed
 t77p
Passed
 abD
Passed
 5gl
Passed
 rj
Passed
 zj
Passed
 Hh
Passed
 %D
Passed
 5s
Passed
 ././.
Passed
 r
Passed
 17
Passed
 us
Passed
 /%Z
Passed
 /%./
Passed
 m...//I
Passed
 12E
Passed
 AN
Passed
 oXupsk3
Passed
 1%
Passed
 5%/
Passed
 /.%
Passed
 8u/
Passed
 We
Passed
 wz
Passed
 rX
Passed
 ./.%.
Passed
 6qt6Y
Passed
 GZ
Passed
 1H2%LCQfNF
Passed
 PR
Passed
 %%/%
Passed
 fxN
Passed
 .x
Passed
 2%..%
Passed
 mx
Passed
 Cyu9g.//
Passed
 hm1U
Passed
 mwSAJ
Passed
 4a
Passed
 /%/
Passed
 cS
Passed
 Q
Passed
 %.H1Zz.QKK1O
Passed
 k
Passed
 K8A
Passed
 K
Passed
 8z%
Passed
 %ZDrxe/
Passed
 3b
Passed
 w%
Passed
 /x
Passed
 oqZ
Passed
 34c
Passed
 IPYTj
Passed
 %pf/
Passed
 gqT29
Passed
 ssbf
Passed
 wK
Passed
 W
Passed
 ../
Passed
 Tnsl
Passed
 %gN%./
Passed
 mQS
Passed
 b%
Passed
 QF
Passed
 iWH
Passed
 rP0
Passed
 UlQ
Passed
 4C%
Passed
 74Fk
Passed
 PSn2gN
Passed
 ElI
Passed
 oT
Passed
 %%Q
Passed
 %/.%G%/
Passed
 wqkU
Passed
 ok
Passed
 Hz
Passed
 Q6F
Passed
 .X
Passed
 Zu
Passed
 /%b
Passed
 e7%
Passed
 L0
Passed
 Fw
Passed
 fhx
Passed
 fGSA2d5
Passed
 ey
Passed
 %%.
Passed
 C6
Passed
 q.
Passed
 tGG
Passed
 Xo
Passed
 .a
Passed
 m3.
Passed
 rqc/
Passed
 .xy
Passed
 dD
Passed
 uX0C
Passed
 1ZB
Passed
 Bfs
Passed
 sR
Passed
 oz
Passed
 1Ve
Passed
 xZ
Passed
 .Ykk
Passed
 go
Passed
 tsv
Passed
 aoKslIP
Passed
 .%%./
Passed
 7R
Passed
 .WcrM4U%.AB
Passed
 adw.
Passed
 gA
Passed
 //JHJLZ
Passed
 nBo
Passed
 02M2
Passed
 I%./
Passed
 zL
Passed
 /AwEtcbG
Passed
 k/
Passed
 R.
Passed
 G%
Passed
 cM9
Passed
 NwJKe
Passed
 z%
Passed
 ../y
Passed
 %.%.%
Passed
 r./ux
Passed
 Q1
Passed
 tc
Passed
 7d
Passed
 qh
Passed
 Ojj/
Passed
 J.
Passed
 rUQ
Passed
 qrs
Passed
 h
Passed
 sN
Passed
 jWxekP
Passed
 0
Passed
 /.
Passed
 %9W.
Passed
 H1516rVXBVm
Passed
 pm
Passed
 PX
Passed
 7YVWwv/
Passed
 N/
Passed
 /F5UCSD/
Passed
 /
Passed
 /%9a
Passed
 Ig
Passed
 Mg
Passed
 5e.../
Passed
 ZIR
Passed
 %M
Passed
 BC
Passed
 XnN
Passed
 J
Passed
 X%
Passed
 /36
Passed
 KwzVGoU
Passed
 .%WM
Passed
 VL
Passed
 TVm
Passed
 J8wa
Passed
 .zt
Passed
 MX
Passed
 0D%
Passed
 i
Passed
 //.
Passed
 vJ.
Passed
 /at
Passed
 DV
Passed
 .///
Passed
 %/%%
Passed
 m
Passed
 %.
Passed
 jj
Passed
 N
Passed
 f%/.
Passed
 FAt
Passed
 ZOg
Passed
 Ja
Passed
 BZ5NnR
Passed
 n
Passed
 koq
Passed
 KL0hxk.hg/
Passed
 %FCeK1VriDRpVT
Passed
 %%
Passed
 4Ins
Passed
 TV
Passed
 g7
Passed
 z
Passed
 LZ.
Passed
 .J
Passed
 8P
Passed
 5PQsz
Passed
 6yUMw
Passed
 64
Passed
 .c
Passed
 %5b8f%
Passed
 3F%/H8j
Passed
 /h
Passed
 /6
Passed
 //Y
Passed
 %.Y/
Passed
 .3y0Y
Passed
 fkB
Passed
 fw4
Passed
 /oc/
Passed
 ab
Passed
 uu7x
Passed
 /..%
Passed
 RlZ..%
Passed
 %x
Passed
 EigAd
Passed
 %B....
Passed
 k.
Passed
 /.W
Passed
 Ygv
Passed
 3y
Passed
 .%/%.
Passed
 T
Passed
 kC/
Passed
 .bv
Passed
 kp7Vgva
Passed
 %
Passed
 AkR
Passed
 Uh/
Passed
 9q
Passed
 /9opEjC.
Passed
 0/
Passed
 lw
Passed
 %k
Passed
 Ya
Passed
 qy
Passed
 gB
Passed
 O.
Passed
 Gvb
Passed
 EvF
Passed
 1zV4N
Passed
 %/%..
Passed
 pw8G9AR
Passed
 ./.
Passed
 xZd/
Passed
 0jZ4q
Passed
 pC
Passed
 4W
Passed
 27P
Passed
 ft
Passed
 tOBUT%/
Passed
 g4OC
Passed
 9xX
Passed
 5
Passed
 %./
Passed
 uS
Passed
 EKb3
Passed
 wxQ
Passed
 PN24hRPIzOw8otM
Passed
 %%%
Passed
 %/
Passed
 Nf
Passed
 Nu
Passed
 5d/
Passed
 ../CV
Passed
 g%.
Passed
 t%
Passed
 A3
Passed
 ./
Passed
 PF
Passed
 .%%/
Passed
 %M%
Passed
 %LDzVTi
Passed
 S.
Passed
 V4
Passed
 ./.%
Passed
 %e
Passed
 sY/.
Passed
 /%.
Passed
 3R
Passed
 gD/%.%
Passed
 cC
Passed
 Vp%/%
Passed
 Ir
Passed
 b
Passed
 3/
Passed
 9b
Passed
 /m
Passed
 %/zeg%
Passed
 .
Passed
 Wh//
Passed
 %///h
Passed
 YO
Passed
 .n7j/
Passed
 ydE%
Passed
 3
Passed
 /.qgwx6S
Passed
 6
Passed
 X
Passed
 /%%iQL
Passed
 .../%%E
Passed
 zJyV
Passed
 KBT
Passed
 M..%%
Passed
 fu
Passed
 %.e
Passed
 .%/u
Passed
 %..
Passed
 M
Passed
 bT0RPM
Passed
 A4
Passed
 %%/.
Passed
 Syc
Passed
 .D
Passed
 ///
Passed
 ..8y
Passed
 cm1b
Passed
 jY
Passed
 4.%
Passed
 GU
Passed
 08w
Passed
 imO
Passed
 .ExEt
Passed
 8Ko
Passed
 /LYgR
Passed
 xy
Passed
 I6
Passed
 Bx/
Passed
 .%%%/
Passed
 sh1M5KP
Passed
 /Ug
Passed
 R2Y
Passed
 %p9
Passed
 %2.
Passed
 T02
Passed
 GHB
Passed
 iW
Passed
 4TB
Passed
 5RTy
Passed
 roQ%%
Passed
 Qgy
Passed
 %/%%%%%%
Passed
 /K%
Passed
 %L
Passed
 80
Passed
 PpOA.t
Passed
 8a2
Passed
 9TYSH
Passed
 pRv/
Passed
 ef
Passed
 qpA/
Passed
 7
Passed
 VG
Passed
 %%..//
Passed
 Q.
Passed
 Sp
Passed
 X8pjQ
Passed
 lZP3.
Passed
 hQa
Passed
 y
Passed
 I
Passed
 7wK
Passed
 8x.%
Passed
 .%d/
Passed
 %J
Passed
 .%.
Passed
 Se
Passed
 295b
Passed
 .1
Passed
 A.%
Passed
 g/
Passed
 %4Tf
Passed
 WLPBN4
Passed
 us%/
Passed
 iE
Passed
 /KvG1i.%%
Passed
 .L
Passed
 ./.YTJk
Passed
 .zY7U
Passed
 j4
Passed
 l
Passed
 6W
Passed
 g62z
Passed
 DAhDEa
Passed
 2T
Passed
 pI
Passed
 7pr
Passed
 5Xbr
Passed
 yLxf
Passed
 .lL4v3fT
Passed
 LV8w
Passed
 43jJ
Passed
 qkvU
Passed
 0pTmp
Passed
 %HBTe.TjM
Passed
 jq%
Passed
 eQ
Passed
 KGd
Passed
 SkO
Passed
 uFhMqUyF
Passed
 TY
Passed
 //i/
Passed
 %%/al
Passed
 Vo
Passed
 %../
Passed
 Pzj
Passed
 ./V%.
Passed
 qPA
Passed
 R8i
Passed
 /%k
Passed
 bA92aq
Passed
 .u
Passed
 Qt
Passed
 %%/%.CYB
Passed
 kvZ8aHJc7D
Passed
 mU
Passed
 /T7/
Passed
 %.%
Passed
 zx
Passed
 ST
Passed
 %Zfe2Z
Passed
 %8
Passed
 w
Passed
 %/./.
Passed
 O5.R
Passed
 4
Passed
 C.
Passed
 uWe1Z
Passed
 %..%..
Passed
 Sw%
Passed
 lr
Passed
 S/XC
Passed
 oI%
Passed
 Jo
Passed
 H%
Passed
 Hw
Passed
 ZDI3wu
Passed
 e
Passed
 v
Passed
 La4NMQ/
Passed
 4S
Passed
 X%//
Passed
 ChgFyrmF%
Passed
 38
Passed
 /nds.fu
Passed
 zb
Passed
 fFz
Passed
 .PWp
Passed
 %r
Passed
 /N
Passed
 .%
Passed
 p42lUUNVLOjM
Passed
 3.
Passed
 P
Passed
 bC
Passed
 76
Passed
 %/%%/
Passed
 hOR4.//
Passed
 LDuO
Passed
 /%%/
Passed
 Ug
Passed
 C0o
Passed
 l3W
Passed
 rg
Passed
 A
Passed
 Yb1
Passed
 ry
Passed
 9/
Passed
 IM
Passed
 PXPx
Passed
 /8./.
Passed
 W7
Passed
 4%
Passed
 nWPFv
Passed
 p39
Passed
 dd.
Passed
 XNz%
Passed
 nnfI
Passed
 L1x
Passed
 Wu.%Ab%
Passed
 grZ.
Passed
 th
Passed
 Irb
Passed
 G7xnX
Passed
 /p2
Passed
 cR
Passed
 ..%
Passed
 6H68sMV
Passed
 s1
Passed
 VY..
Passed
 7nu
Passed
 0Kcv
Passed
 MQW
Passed
 odZ
Passed
 8l
Passed
 e9
Passed
 H5z
Passed
 %PGf/.
Passed
 .2.
Passed
 yzL
Passed
 TB
Passed
 A/
Passed
 %%o
Passed
 q
Passed
 R
Passed
 lg
Passed
 E1hhBt.
Passed
 I3689
Passed
 r2
Passed
 Zra
Passed
 vT
Passed
 w7w
Passed
 V3ta
Passed
 xg%
Passed
 WEP
Passed
 /2lr
Passed
 yczm
Passed
 .h.
Passed
 Go
Passed
 %/.i
Passed
 c3Xk
Passed
 VP7p
Passed
 joGm4
Passed
 ooe
Passed
 Wd
Passed
 0h
Passed
 /9
Passed
 Im
Passed
 Ef%
Passed
 vrf
Passed
 .2OJ5
Passed
 9
Passed
 .hh
Passed
 hcU0
Passed
 .e
Passed
 q8
Passed
 E4wXl
Passed
 hb
Passed
 .s/
Passed
 bK3.
Passed
 Pc
Passed
 8k
Passed
 %V
Passed
 w.%
Passed
 xA
Passed
 p/
Passed
 cp
Passed
 Z
Passed
 c
Passed
 C4
Passed
 w%/
Passed
 /P
Passed
 KC
Passed
 %Y.
Passed
 s
Passed
 /q
Passed
 /X
Passed
 .G
Passed
 wL
Passed
 veW.
Passed
 qW
Passed
 x%%
Passed
 A9Z
Passed
 q%
Passed
 %.%UJ8S
Passed
 T%h
Passed
 71
Passed
 z2b
Passed
 awv
Passed
 vkW
Passed
 NhSz.%
Passed
 .t
Passed
 .%/
Passed
 wXPoW
Passed
 wzC
Passed
 GHmS%
Passed
 FCKfg
Passed
 Fu
Passed
 %2K
Passed
 %uMzm
Passed
 /hvE
Passed
 e%
Passed
 zmwED
Passed
 .//
Passed
 /.%%
Passed
 DEf
Passed
 bq
Passed
 PT
Passed
 SV.
Passed
 %o%
Passed
 wr
Passed
 MC
Passed
 Jd.7s%
Passed
 UGvN%
Passed
 cocIX6
Passed
 Ek
Passed
 IN
Passed
 ..RWynK
Passed
 cafSmDFq
Passed
 Kre
Passed
 .Re
Passed
 mg
Passed
 7NEO
Passed
 ./.%%..
Passed
 LFTnrc
Passed
 ./..d2
Passed
 .%y
Passed
 /%%..
Passed
 3N.
Passed
 /.%/.
Passed
 q46
Passed
 2
Passed
 TbjK
Passed
 yY%%%
Passed
 0b
Passed
 ovrFS
Passed
 ./%.4P50
Passed
 Tbhw7
Passed
 QW
Passed
 sd
Passed
 .%//.
Passed
 iU
Passed
 S/%%P
Passed
 /Nls0
Passed
 /D7
Passed
 mf
Passed
 pfgg1
Passed
 //
Passed
 jt
Passed
 %.//.
Passed
 %N//
Passed
 o
Passed
 .N
Passed
 C
Passed
 0v
Passed
 L
Passed
 /wdm
Passed
 c7u/
Passed
 p
Passed
 SWOP
Passed
 5H
Passed
 0L
Passed
 hvv...
Passed
 tktx7
Passed
 M%
Passed
 4D
Passed
 /p.
Passed
 eWc
Passed
 d9
Passed
 j5M
Passed
 %qf
Passed
 VY
Passed
 .//./R/.
Passed
 .%.R
Passed
 /yl
Passed
 .U
Passed
 bPD3
Passed
 O%/
Passed
 gSj
Passed
 yCb0
Passed
 x
Passed
 bo
Passed
 0.
Passed
 To
Passed
 39I%/
Passed
 6t./w
Passed
 a
Passed
 eKRcwr
Passed
 Ls
Passed
 .PjgiyJ29B.
Passed
 v0
Passed
 ..h5
Passed
 sqz
Passed
 /KTH
Passed
 %%b%z
Passed
 xJs
Passed
 7pd
Passed
 .TJ
Passed
 sdR
Passed
 kDq
Passed
 WcY
Passed
 t
Passed
 3ROw
Passed
 ..5
Passed
 /..
Passed
 9CguT
Passed
 ..%/
Passed
 I9Pf
Passed
 w3.
Passed
 Rn
Passed
 pJ
Passed
 jha
Passed
 .%%.
Passed
 irS
Passed
 Vh
Passed
 .%/%
Passed
 0X
Passed
 ..%j
Passed
 Vv2j4P
Passed
 bQ
Passed
 s.
Passed
 %j
Passed
 /.oG8j/
Passed
 3H
Passed
 kkE
Passed
 ..//%%
Passed
 .crUw
Passed
 kB
Passed
 yQnST
Passed
 /Aw%
Passed
 YS%w3/
Passed
 Hu..
Passed
 FZHCz757n
Passed
 EK
Passed
 d2
Passed
 iJ/
Passed
 /%./.
Passed
 jO4R1FIa
Passed
 /%
Passed
 RMD
Passed
 46P
Passed
 HPQ.
Passed
 S/
Passed
 T0
Passed
 /.c6
Passed
 j%%
Passed
 oxsD%
Passed
 %f/
Passed
 iA5V/
Passed
 /.AFdF
Passed
 zd
Passed
 tIY
Passed
 qL
Passed
 .n.
Passed
 ni
Passed
 o7c
Passed
 B
Passed
 MT
Passed
 sfSs
Passed
 AA0
Passed
 AaY
Passed
 X1Q
Passed
 GcX0K
Passed
 ej
Passed
 kYA/
Passed
 mOcmdd
Passed
 zT
Passed
 O
Passed
 G.
Passed
 D3Y
Passed
 juOw/
Passed
 X3W
Passed
 3k%
Passed
 /./
Passed
 hq.
Passed
 0uI0
Passed
 aWpVG
Passed
 /k
Passed
 E
Passed
 IMLoc2./..%/%
Passed
 /z
Passed
 .7Y2
Passed
 j
Passed
 7/..%.L
Passed
 UN/
Passed
 NYo
Passed
 aj
Passed
 /%%
Passed
 Y/
Passed
 Byh/
Passed
 /U9f
Passed
 %bQLg
Passed
 1mV
Passed
 G/
Passed
 GlL
Passed
 eA
Passed
 6pj
Passed
 /3uoFH
Passed
 XpY
Passed
 1lEnIS8h
Passed
 %u
Passed
 .v%/
Passed
 Y/%/%
Passed
 Y
Passed
 d
Passed
 E/
Passed
 E97
Passed
 H5
Passed
 Xe
Passed
 x4gPX/.
Passed
 9g9
Passed
 mk
Passed
 Kfp
Passed
 7J
Passed
 f
Passed
 4Y
Passed
 g2
Passed
 /Q
Passed
 %/%/
Passed
 %/.
Passed
 lOL
Passed
 Jb
Passed
 bd
Passed
 xI
Passed
 ak
Passed
 /...
Passed
 r8
Passed
 pE
Passed
 7NP
Passed
 vMjlU
Passed
 %/s
Passed
 %t
Passed
 H
Passed
 %K1kX.
Passed
 KN
Passed
 ra
Passed
 m%
Passed
 /mt
Passed
 E8
Passed
 V/1
Passed
 %..%.
Passed
 ZU
Passed
 vti08wzSRm
Passed
 oJ
Passed
 ivC
Passed
 ..9p.g
Passed
 va
Passed
 ..
Passed
 UOqH
Passed
 %269..%
Passed
 nT
Passed
 fKv
Passed
 G5
Passed
 H6
Passed
 Zao
Passed
 KU
Passed
 .%%
Passed
 RKAb
Passed
 Ya%
Passed
 5GCK
Passed
 h.%
Passed
 Y.20Xm
Passed
 .R0TUq
Passed
 5gC
Passed
 .WX6
Passed
 vG/
Passed
 ../%
Passed
 Vc%
Passed
 6A.%
Passed
 /M9k.
Passed
 /ao%
Passed
 %TPK
Passed
 Lcj
Passed
 q0fU
Passed
 /.Y/
Passed
 b.
Passed
 Rlztk
Passed
 .41
Passed
 8.
Passed
 rt
Passed
 jVd
Passed
 D
Passed
 8E
Passed
 Q9
Passed
 E2
Passed
 %%/
Passed
 WBo1/
Passed
 LBC/
Passed
 %Nq
Passed
 cTwNCIf
Passed
 %.882
Passed
 y4
Passed
 2h
Passed
 JMAM/
Passed
 Pl
Passed
 fl
Passed
 gM
Passed
 4x
Passed
 Tq
Passed
 5X
Passed
 aK
Passed
 6KHj/%
Passed
 %R
Passed
 m.
Passed
 nABEk
Passed
 %.%%
Passed
 .%.%%%/
Passed
 .%.G
Passed
 SL/%
Passed
 bVN%
Passed
 ././6p
Passed
 q9
Passed
 Wh
Passed
 S
Passed
 bUsp
Passed
 2o
Passed
 %/if/
Passed
 Sk
Passed
 /g1O.
Passed
 %oF
Passed
 r.
Passed
 k/%
Passed
 nX9WOXac
Passed
 okp
Passed
 //S
Passed
 mYhN
Passed
 g
Passed
 T1
Passed
 O/
Passed
 TzQ2eo
Passed
 Cdf
Passed
 KNgF
Passed
 a3gf
Passed
 w3
Passed
 6j
Passed
 oaZ.
Passed
 %//
Passed
 k%/C
Passed
 I6J
Passed
 Jc
Passed
 5togzh
Passed
 yO
Passed
 5LSL
Passed
 %p.
Passed
 %/i
Passed
 %%%4aA
Passed
 /8
Passed
 fxL
Passed
 NnB
Passed
 //%../F
Passed
 c./
Passed
 tAd.
Passed
 Pps
Passed
 NT.
Passed
 /e%
Passed
 /..%/
Passed
 wHv/
Passed
 0/.
Passed
 qV
Passed
 M%Se
Passed
 ED
Passed
 %luq
Passed
 .5L
Passed
 /IL6e6Z5z3
Passed
 qP
Passed
 F
Recall set (size 1000):
    o%5DK
    Ow%24
    %7D%2C%7B
    Mu
    FU%7B
    ~tj  <----- FAILURE
    M%25
    ~%5Ek%3A  <----- FAILURE
    gS%25
    %40H%21o
    s
    %3F%5Cvg%7D0I
    x%3B
    %60s
    %3B%2Ai
    d%5E
    c%29a
    %29%7D
    %28%24E
    %3Ch
    %2C6/%3B%5B%3D3
    %29%5B
    %3B%26
    .%29
    %7ClF%5B
    _%3F-  <----- FAILURE
    %29T
    WOOB
    %21T%7C
    %2BNTM
    %5Ck
    YOCl
    9
    %291
    6%7B%60Z
    O%7BW
    %3DHHYZ
    p.
    X%3F
    %2A%2B
    m%25Y
    /t
    0W
    ak
    q%2C~sn  <----- FAILURE
    k
    %23O2
    %22
    k%3F-  <----- FAILURE
    %7C%23%5BPa
    Zi
    %3D%40%7D%7B
    jB
    Z%3A
    %24/%2B%3F
    fh
    -%2A  <----- FAILURE
    3%7B
    OL
    %227Hrx%3BX
    %5C%5B%3F
    V%22%24h
    0%5DE
    %3F%40H%2B-  <----- FAILURE
    8%60%7B
    %21%29%22
    %5B%5C
    %254
    %2CwL
    %60%2C%3F
    w%3FQ
    %27%2Cd
    3
    %3F%7B
    QC
    %2Ak%5E%3D%7B%5BQ
    0
    %3E%40%27Q1%29%2C
    x%3D
    3v%24
    M%5E%28
    %28%5B%3D%40
    %3B%25%2B%40
    %5Bf%2A
    %3BFrw
    5.
    Yod
    r.%21%5C%7B%40I
    C
    S%3A
    ~f  <----- FAILURE
    V%24
    nB
    %3BFk
    6
    oS
    8L
    8q
    7%291
    %3FjGK
    p%25
    %3E
    9%40
    %27N%24%23UW
    g5H
    %3A%3B
    rA%24mv
    wT%21Q
    %2B%28
    %5BsG
    %24%2C%5D
    %3Cl
    %5E%21%3A%24
    %26%5C%2C%29
    f%3D%28
    M%29%24R
    %27%3B
    %28J%3D
    %29h%3CW
    %7C
    %3B%27j
    J%22
    y%24
    %3C%22
    B%26w%3BAn
    mq
    %5C%28
    %3B%3A~  <----- FAILURE
    U%21
    m%7DF
    %7B%26y0
    %5Egb
    u%5C
    %5C%21uv
    /t2
    %2C
    %21%3E%22%3B
    rP
    J
    %2B1%3C
    l%3B
    ~%25%3C%23  <----- FAILURE
    d4
    %7DE
    Xc
    %28e
    %277
    _SC  <----- FAILURE
    %3Fstx
    %24P4%22
    %22H
    q%28
    3%40
    %2BV
    dO%23
    j9E
    %5D%3F
    E%3F
    %28%60%5C
    %2A%3F
    %3B%3E
    %3Ds
    %29%26
    G8%2BP
    %5DdD%3B4
    G3I6
    go
    YFo
    8%25
    %5D%25
    d%27
    V%26
    %3A./
    %7BZgI%7D
    z%40%5E%3C
    %22%3A
    %21%3C
    R/
    %29%2C%3A
    h2t
    7%2B%29
    %60%2A%3E3N
    %7D%7D
    %28b
    Ng%7D%3B
    %21%3B%5B
    %21%3F%2C
    %7CKo
    E%2B%40Ur%7Da%3C
    R3
    Iqp%23
    7%23
    fj%27P
    %3D%293
    %3E%3B%5D%3D
    HL0A
    K%28
    rO
    Lo
    9%5B
    zg%25%3AU
    %29I%40%26%5C%5E%3A
    i
    G%28
    4E%40
    %5D
    %2AI%3F
    %24I
    %2B%7D%60
    %5C%29
    T.
    vF%7B%3E%5B
    z8%3F
    %25%7C
    nZ%40%5D
    z
    Dz
    .
    t%29VQw
    %27zWWN%26~  <----- FAILURE
    p%29
    %5C%3E%23
    %40j
    %27%25
    UF
    %3A
    %2C%27R
    %2Bbuy
    ~  <----- FAILURE
    8%5D
    i%2B
    g%3E
    n
    %7CP%3FzI
    %25H9
    1%5EE
    %2A%40
    %29f
    m%3D%29%5D
    %27
    O%3FM
    %3C%40%5D
    r%7Bc%2C%2A%28m
    %29H
    K
    %60d
    GC%5E%5E
    L
    B%3AU
    %3C%7B
    M%21%29
    %3D%3C%5BY
    %2A%21
    %3Ff
    %25%5E%27~e  <----- FAILURE
    fZ
    %25%26%3A
    %5E%5Cum%7D
    c1
    W%28%22%5D
    q%2A
    3%3B
    K%27
    2
    %2A1
    %7DG
    7q
    Lkb
    y%3F2%7B
    P
    M
    %7C%2A
    %5B0
    %7D1vh
    ITV
    -On%3B  <----- FAILURE
    %3C%7C
    4D
    %7C%23%40
    q-%7D  <----- FAILURE
    %24E
    %23Ey
    %2A%3D
    D%2B9
    W0%3Ff
    ks0
    %7B%3B_  <----- FAILURE
    %26%5D
    A%21%5C%3D
    y
    %22f%24
    %3APx
    N
    -%5D  <----- FAILURE
    V%3C
    M%5B%2C
    8
    %3E%5D
    /%5E%25%3FE
    %26%2B_  <----- FAILURE
    C%5D%3Bz%25
    %3DCH%28%2B%5B%40%25Z
    %3E%7C%2CV
    t
    SI
    %28
    %27%3Dx
    %22%3D
    %3C%2C
    5%5D
    %25W
    %26%2C%24
    j%5D%28
    %29%29
    _w  <----- FAILURE
    %60%3B
    %3C%2A
    LH
    T%3EN
    %29%2A%3E
    %3CV%7Bp
    %26%5B
    %22o
    hE
    j
    D%26%28TJ
    Yc%26%7D/
    %25O%24%7C
    Ji%2A1%21
    %28%27h
    %3E%5Cc%2C
    n%24
    %5EN%3DO
    Y%7C
    H%3C%3E
    J%3B
    %2A-%29  <----- FAILURE
    %5CY
    6%3Di~  <----- FAILURE
    4Wm
    WJ
    gX%3B
    %40BG
    X%3C
    %5CG
    4%3A%21n%21
    %40t
    zr%24
    %3C%5D
    %3AgV%5E%7CE
    %28.
    A-b  <----- FAILURE
    .0%7B
    o%23%27%24
    %24%28
    %5B%26X
    %21Fk%21FI
    l
    %3D4%23%5B
    %5C%5C
    Z%7C
    %3A.%5D
    SwvsR
    T7
    %3BV
    %5C
    p%3Ay
    %3Bw
    %3E%29
    %27%3D
    %2CUn
    %3B%27%25e%3E
    %3B%24_.%2A  <----- FAILURE
    %3C%3B
    %27%3A
    %25%27n
    %3B2O
    %2BI%25
    JJ
    V
    v%5C%23
    /%3F
    p%7D
    %40X
    Z%22%7D%26
    T%3E%2B%7B%25
    u3%2A%26L
    r7
    %5BP
    L%3A
    %25%3C
    %5B%5D
    %28%22
    -%3DsQJP%2C  <----- FAILURE
    %60%26%2A%22yq%3BP
    id
    %29k%25v
    N~X  <----- FAILURE
    %248
    6%3B%7D
    %5B%60
    %3Ae
    %3DIy
    m
    %27c
    D%2C
    %22y
    %7CM
    %7C%25
    %2Cks%29
    k%29S%3D
    v7SD
    ZAZ%27
    %21S
    ~B  <----- FAILURE
    Hl%7D
    %3B%28
    8m
    %5C%7C%40
    %3AJ
    %40
    G
    %3Dd
    Y
    %2Aj
    _w2BV  <----- FAILURE
    Ma%2177
    Ad
    C%29%3C%21
    %2B%5B
    b%3BX
    PY
    R%2AcE
    ~%7Cc  <----- FAILURE
    %27dK
    %21
    %3CkH
    b
    f%23%3D%5CSw%40%2A
    %23%401%40
    %24%3B%240
    Z%3F
    z%3F
    %3A%3C
    %3E%2A
    R%3F%3B
    ~RQf%3C%5E  <----- FAILURE
    Du_  <----- FAILURE
    s_B  <----- FAILURE
    %5DZ
    %7CI
    TL~  <----- FAILURE
    %3Fn
    tn
    f%22
    P%22%7D
    w%27%7CqsKF%5C%60
    %403
    %7By
    k%2C%3E
    pea
    %2B%27%22
    %3F%60
    YCpD
    %3F
    5Jp
    %26
    7%5B
    z%3Di
    %3Fx.%21
    Wyut
    %5B%27
    T
    d
    %5C_  <----- FAILURE
    W
    oxmL
    PI%5C
    %25%3DD
    %21%3D%26%26%28
    %5EQ
    Y%24%26r
    %5E7
    %5Eoy
    S%5C
    %28L%7B
    Os%22
    OJ
    %5EVO
    2/%26
    %295
    6P
    %5BM
    %26%28w
    %23%23
    O
    f
    rz%5B%7C
    %5C%25
    %29%5B%25
    %3BSc
    %5D.%23%2A
    %2AZ
    %5D%3D
    %3F_  <----- FAILURE
    %2Cg
    Qy
    4%25
    %60I%3C
    _d  <----- FAILURE
    Q
    kQ
    LR
    %7BB
    Cl
    /-Pq  <----- FAILURE
    Bx%5B.b%27
    l%25%2C
    4Y
    m%3CX
    R%2A
    h%25
    -%28  <----- FAILURE
    E3mV
    y6%2B
    Ft
    %3AU
    h%7B
    Q_~  <----- FAILURE
    %28%26
    Y%26
    S
    %2B4%3C
    leSEF
    XL
    q%5E
    %5E8%3E%28h
    %2A%21%2A%5E3%5E
    w8
    %7D
    %40W
    x%7Dh
    %3E%24t
    %40.
    H%7C%7B%27.%2B%25
    1
    q
    %29
    %29b%26HI%5D%22%27Em%7BB
    nC
    x/a
    r
    %3BG%26
    %22G
    %29L%2A
    5%27
    %2Ck%7Da
    f%23%5EN
    S%5B
    OG%27
    %3Aez
    c%25p
    aH
    tM
    %2Bb3
    %3D%5D
    %3AY
    _%5E%25  <----- FAILURE
    %7B
    DI
    f%3A
    %3A5%40
    7Di%25H
    5%2B
    D
    Jm
    %7D%2C
    e%5B
    op
    dI
    3%25
    %3BD%3C
    VC
    7
    x
    %5C%5D
    %3Er%5DZ
    A8
    8%7C%60%21
    %3B%2CP
    e
    g4w
    n~  <----- FAILURE
    %21%7C
    %21%27%3C
    %29%29Q%29
    _%3C  <----- FAILURE
    %3D%23%7C
    %5B5
    %26mch%2A%2A
    _~o  <----- FAILURE
    y66%7Bm3%29
    %23
    %2B%7C%27
    %2CMv
    4
    %5E%3Bs
    /%40
    %21%5B
    %5CtES
    I
    %28C
    8e%7D
    E1%2C%2A
    N4%5Bc%29%2C
    IGY
    %3DB
    KL%603
    nN
    LG
    b%7Db/i
    %7C%22
    %5C%7C
    V%3B%270
    %3CHb
    Ey
    7%2C
    c~  <----- FAILURE
    %7D%25
    P%23%3D
    %3C%5B
    %21%3B%24x%3C%5D
    %24xt%21%40c
    %22%2B%250%3E
    0%2B-  <----- FAILURE
    %5DY%21E
    K.%7B%28
    %3D%25%7Bn
    %5B%26
    %2BK%3F
    S%22
    N%25
    %23aO
    %3D%3By%5E
    O%25q
    %24Lu
    Wt
    v%5E
    R6%27r
    c%3CV%3B%5E%3Ai
    qkX
    W%40
    %5EO
    p%26
    %24H
    L%7C
    ye
    uK
    t%7B%5C
    h%29
    %40%21U%23
    8%2C
    _  <----- FAILURE
    y%60gv7K%60
    o
    %3ET%40%5B
    %26B
    iZ%7D
    %3Bp
    %246A
    T%27mF%24
    %2CK
    rZ
    %7CnNO
    %3FG
    FKG%3B
    %2Aa
    %40PF
    %3E2
    %7By%3C
    %60t%23F
    %23%27%29
    5%3E
    m%2AY
    c%26%3B~v  <----- FAILURE
    G%21
    %3C
    %3B3%3Ep%5C
    %29Q
    %5D.%21%23
    /W%2B
    c%29%2B_  <----- FAILURE
    nWu%2A
    %26%7D%2Br
    lT%3E
    mF
    %3DwC
    HG1
    %3B
    %29G%40
    %2C%5C%3BQ
    %2B
    %3Bm
    %60%29%5D%2CSV%2A%2B
    %26%27
    .5uq%3C
    %5Bd-  <----- FAILURE
    ob
    %5E
    %5B%22
    _%29  <----- FAILURE
    Nd%2Bm5%3E
    R
    %7BA%3C3i
    %21%5Bu
    2%7C
    w%7DD
    sN
    %7C%23%28%7D
    bl
    fJ%60
    %5E%3D
    q9
    Lq%7BF
    6%3E%2B
    g
    s%22
    %23%21
    %285
    %3Bq
    n%28
    8o
    %28%7C
    %26%3D
    %299Ap%2Ay
    j%3C
    F
    ~%23  <----- FAILURE
    bQ%3B
    uY
    2%25
    3%26
    %23h
    Z
    i7%3B
    bi%5C
    a%29
    %5C2%7D
    %22%28%2AK/G
    /
    _e%23%5Dt  <----- FAILURE
    szo
    %2C%25
    %27%3D-p  <----- FAILURE
    %21%40
    %3F%3F
    5
    G%3F
    _2%21  <----- FAILURE
    m%7C%21
    %7D_1  <----- FAILURE
    5X
    cc
    x%25
    %7Cb%24
    %5E%2C
    %29%3E
    s9j
    Se%26
    %3E0W
    ZO%2B
    r%5DO
    %7B%5B%7DFp
    %2Ce
    %24gB
    %7Cd%60zn
    ~cY  <----- FAILURE
    %7D%2A
    %5C%27
    1S%3D
    Y/
    %26~6y  <----- FAILURE
    %60%23%28N
    b%24b
    VL
    W~%3Fcn  <----- FAILURE
    %23%2C0bl6
    %60F
    %2A%2C%29
    %3E%2B%234
    1J%5E
    %7Bg
    P%2A
    6%2AE%26E
    %5CV/%29
    %40x
    %40%27%5B%3E
    E
    du
    %7C%7DMNU
    18qp%5D
    %25%29
    %23%5E
    %29%7DXv
    %3Br%24D
    a
    Os%21
    u
    %2A%7B
    %3C4
    %40Ml8
    TX%25
    %5DZuZ
    %3Bj%28o%2Cg
    jA7i5
    A
    %2C%5D
    _%3B0  <----- FAILURE
    %2Av
    %2C%2Cj
    bGY
    dJ%25
    S%23
    %5C%2B%23V%3C
    %24%282
    %22l%2B%29%299%5E
    1%3D%29
    %21%2C%2B
    %3D
    GM
    D%22
    %7C%2B
    I_%2CvF  <----- FAILURE
    aU
    9z
    %22%5C
    N%2A%27R%25f
    h
    %40%3D
    et
    %5D%3E%29ske
    %3A%23
    n%60
    Td
    %3C%27
    x4%7B%2B
    %2A%5D%29
    %24
    %2BW
    %2C%40Ub
    %27A
    %5E%3Fu
    x%7Bo
    %7C%7B%5E
    f5
    mw
    q%2AX
    c
    %5E3
    %27%3C
    Bp%40
    Y%3B
    jn
    lEb1
    %7Bf
    %21%21
    Ezr
    Pq
    %28D
    %2A
    v
    %25%24
    Z%5B
    %3C%3Fj
    %3Ee%3DrGZ%40e
    %3EW%40y
    u_%5CnP  <----- FAILURE
    %3C%24%7B%24
    6%5E
    %3E%3D
    _%3D%26%3F/O  <----- FAILURE
    %2C%3EM%5D
    %3E%29%28%24so
    /R
    %281
    Q9
    %5C%3E
    R%25
    %26a
    D%2Bx
    %2C%5B
    K%60%2C%24f4
    _%2Aa  <----- FAILURE
    aR
    %21D
    %2CY
    %3Cib
    jR%7BM
    %3C%5E%2A
    H
    D%26%22
    %7D%24
    %60
    %3A%2C%7D
    x%3F
    %24C
    U
    -  <----- FAILURE
    5%3A
    %5BS
    -%3B  <----- FAILURE
    %21X%7C%60%3D
    %3F%5E
    n%5E
    UG
    %22I
    EM7T%26%40%5E
    q%26
    oQ5F
    nO
    %28hG
    %5B
    %40%21k
    5%3C
    %3ED
    d.
    Hxc%7Bo%5D
    vNC2
    %7Ba%60Od%2A%2A
    %2C%3A%29%23
    %29e%3B%25dm%3D%5Cc%5ES%2A
    %7B%23%40%5C
    jMf
    %40Pn
    i7
    Ce
    %60_  <----- FAILURE
    F%40
    %5E%29
    %29%2Amgf%7D
    %5D%7B
    %7BE
    X
    g%5C
    %5E%3B
    Ik
    J%25
    p
    %23z
    iw
    %27c%3B
    P%28
    Z%3C%5C
    %25
    nu
    %5C%3AC
    %24%3F
    2U
    B
    %3A%2A%26sA
    %2C_%3C  <----- FAILURE
    %7C%21
    5%5B%2AO%3A
    O%3EH%29P
    %22%25X
    %60%28
    _G  <----- FAILURE
    %265b%60Y%26%5BUo%3C
    %40i
    RH
    O%2B
    r%5C%26%2BSS
    %3DT
    E%40%24
    CJ%3FBv
    %5CO
    %7C%5Dv
    %7DN
    %5D%5C
    %5E%24
    Fy
    EG5%28%7CK
    %7Cf
    TPP
    m%29
    %2B%40_  <----- FAILURE
    %3B%25.
    2D
    3A
    AC
    OI
    l7
    %7B%21
    w
    47
    r%3BgCU
    i%23
    p%40%29
    %24%5E
    %3E%27
Recall: 0.931, Precision: 1.0
Example gen time: 3.4358112812042236
Scoring time: 10.555205345153809
